<additional xmlns:xsi="http://www.w3.org/2001/XMLSchema-instance" xsi:noNamespaceSchemaLocation="http://sumo.dlr.de/xsd/additional_file.xsd">
    
    <!-- Vehicle Type Needed by SUMO -->
    <vType id="passenger" accel="2.6" decel="4.5" sigma="0.5" length="5" minGap="2.5" maxSpeed="13.9" guiShape="passenger"/>

    <!-- Parking Areas -->
    <parkingArea id="Parking1" lane="-3644_0" startPos="20.00" endPos="45.00" name="Parking1" roadsideCapacity="5" friendlyPos="1" length="10" angle="120.00"/>
    <parkingArea id="Parking2" lane="-3543_0" startPos="35.00" endPos="65.00" name="Parking2" roadsideCapacity="5" friendlyPos="1" length="10" angle="120.00"/>
    <parkingArea id="Crane1" lane="-3542_0" startPos="30.00" endPos="80.00" name="Crane1" roadsideCapacity="5" friendlyPos="1" width="10.00"/>
    <parkingArea id="Crane2" lane="--3514_0" startPos="30.00" endPos="80.00" name="Crane2" roadsideCapacity="5" friendlyPos="1" width="10.00"/>
	<e1Detector id="det_Lauriol_I4" lane="-10844_0" pos="10" freq="3600" file="detector_aggregated_output.xml" friendlyPos="true"/>
	  <e1Detector id="det_Fosse_P1" lane="-4068_0" pos="10" freq="3600" file="detector_aggregated_output.xml" friendlyPos="true"/>
	  <e1Detector id="det_Bellamy_I6" lane="--6418#1_0" pos="10" freq="3600" file="detector_aggregated_output.xml" friendlyPos="true"/>
	  <e1Detector id="det_Painleve_P2" lane="--14823#0_0" pos="10" freq="3600" file="detector_aggregated_output.xml" friendlyPos="true"/>
	  <e1Detector id="det_Boffrand_P2" lane="-1014#3_0" pos="10" freq="3600" file="detector_aggregated_output.xml" friendlyPos="true"/>
	  <e1Detector id="det_Camus" lane="--8790#0_0" pos="10" freq="3600" file="detector_aggregated_output.xml" friendlyPos="true"/>
	  <e1Detector id="det_Fosse_I1" lane="-11377_0" pos="10" freq="3600" file="detector_aggregated_output.xml" friendlyPos="true"/>
	  <e1Detector id="det_D_Arc" lane="-11059#1_0" pos="10" freq="3600" file="detector_aggregated_output.xml" friendlyPos="true"/>
	  <e1Detector id="det_Allende_I3" lane="-4720#1_0" pos="10" freq="3600" file="detector_aggregated_output.xml" friendlyPos="true"/>
	  <e1Detector id="det_Mercoeur" lane="-3978_0" pos="10" freq="3600" file="detector_aggregated_output.xml" friendlyPos="true"/>
	  <e1Detector id="det_Patton_P" lane="--3182_0" pos="10" freq="3600" file="detector_aggregated_output.xml" friendlyPos="true"/>
	  <e1Detector id="det_Bureau_I" lane="--3973#0_0" pos="10" freq="3600" file="detector_aggregated_output.xml" friendlyPos="true"/>
	  <e1Detector id="det_Prairie_Duc_P1" lane="-1174#1_0" pos="10" freq="3600" file="detector_aggregated_output.xml" friendlyPos="true"/>
	  <e1Detector id="det_Martyrs_I2" lane="-8319_0" pos="10" freq="3600" file="detector_aggregated_output.xml" friendlyPos="true"/>
	  <e1Detector id="det_Briand_I1" lane="-9775_0" pos="10" freq="3600" file="detector_aggregated_output.xml" friendlyPos="true"/>
	  <e1Detector id="det_Pirmil_I" lane="--933_0" pos="10" freq="3600" file="detector_aggregated_output.xml" friendlyPos="true"/>
	  <e1Detector id="det_Leclerc" lane="-9587#1_0" pos="10" freq="3600" file="detector_aggregated_output.xml" friendlyPos="true"/>
	  <e1Detector id="det_Barbusse_I1" lane="-8446_0" pos="10" freq="3600" file="detector_aggregated_output.xml" friendlyPos="true"/>
	  <e1Detector id="det_Dalby_I4" lane="-14406_0" pos="10" freq="3600" file="detector_aggregated_output.xml" friendlyPos="true"/>
	  <e1Detector id="det_Longchamp_I4" lane="--9652#1_0" pos="10" freq="3600" file="detector_aggregated_output.xml" friendlyPos="true"/>
	  <e1Detector id="det_Jost_P2" lane="-10895#0_0" pos="10" freq="3600" file="detector_aggregated_output.xml" friendlyPos="true"/>
	  <e1Detector id="det_Michelet_P4" lane="-6973#1_0" pos="10" freq="3600" file="detector_aggregated_output.xml" friendlyPos="true"/>
	  <e1Detector id="det_Magellan_P5" lane="-13519_0" pos="10" freq="3600" file="detector_aggregated_output.xml" friendlyPos="true"/>
	  <e1Detector id="det_Stalingrad_P4" lane="-4796_0" pos="10" freq="3600" file="detector_aggregated_output.xml" friendlyPos="true"/>
	  <e1Detector id="det_Cardiff_P1" lane="--10126#1_0" pos="10" freq="3600" file="detector_aggregated_output.xml" friendlyPos="true"/>
	  <e1Detector id="det_Martyrs_I1" lane="-14921#0_0" pos="10" freq="3600" file="detector_aggregated_output.xml" friendlyPos="true"/>
	  <e1Detector id="det_Martyrs_P4" lane="-16434#1_0" pos="10" freq="3600" file="detector_aggregated_output.xml" friendlyPos="true"/>
	  <e1Detector id="det_St_Mihiel" lane="-16113_0" pos="10" freq="3600" file="detector_aggregated_output.xml" friendlyPos="true"/>
	  <e1Detector id="det_Orrion_P" lane="-5122#0_0" pos="10" freq="3600" file="detector_aggregated_output.xml" friendlyPos="true"/>
	  <e1Detector id="det_Mollet_I4" lane="-15483_0" pos="10" freq="3600" file="detector_aggregated_output.xml" friendlyPos="true"/>
	  <e1Detector id="det_Ste_Luce_P5" lane="--6694_0" pos="10" freq="3600" file="detector_aggregated_output.xml" friendlyPos="true"/>
	  <e1Detector id="det_Orrion_I2" lane="--13543_0" pos="10" freq="3600" file="detector_aggregated_output.xml" friendlyPos="true"/>
	  <e1Detector id="det_Dalby_P1" lane="--14406_0" pos="10" freq="3600" file="detector_aggregated_output.xml" friendlyPos="true"/>
	  <e1Detector id="det_Lauriol_P1" lane="--10844_0" pos="10" freq="3600" file="detector_aggregated_output.xml" friendlyPos="true"/>
	  <e1Detector id="det_Pont_Léopold_L1" lane="-10387_0" pos="10" freq="3600" file="detector_aggregated_output.xml" friendlyPos="true"/>
	  <e1Detector id="det_Felibien_I3" lane="-1070_0" pos="10" freq="3600" file="detector_aggregated_output.xml" friendlyPos="true"/>
	  <e1Detector id="det_Nations_Unies_I" lane="-8936_0" pos="10" freq="3600" file="detector_aggregated_output.xml" friendlyPos="true"/>
	  <e1Detector id="det_Anglais_I6" lane="--10924#0_0" pos="10" freq="3600" file="detector_aggregated_output.xml" friendlyPos="true"/>
	  <e1Detector id="det_Boulay_Paty_P1" lane="-15164#0_0" pos="10" freq="3600" file="detector_aggregated_output.xml" friendlyPos="true"/>
	  <e1Detector id="det_Anglais_P2" lane="-10982#1_0" pos="10" freq="3600" file="detector_aggregated_output.xml" friendlyPos="true"/>
	  <e1Detector id="det_Hauts_Paves_P1" lane="-7518#1_0" pos="10" freq="3600" file="detector_aggregated_output.xml" friendlyPos="true"/>
	  <e1Detector id="det_Hauts_Paves_I1" lane="-7515#1_0" pos="10" freq="3600" file="detector_aggregated_output.xml" friendlyPos="true"/>
	  <e1Detector id="det_Grootaers" lane="-5785#0_0" pos="10" freq="3600" file="detector_aggregated_output.xml" friendlyPos="true"/>
	  <e1Detector id="det_Madeleine_P2" lane="--1396_0" pos="10" freq="3600" file="detector_aggregated_output.xml" friendlyPos="true"/>
	  <e1Detector id="det_Coubertin_P1" lane="-1202#0_0" pos="10" freq="3600" file="detector_aggregated_output.xml" friendlyPos="true"/>
	  <e1Detector id="det_Pageot_P1" lane="-10961#2_0" pos="10" freq="3600" file="detector_aggregated_output.xml" friendlyPos="true"/>
	  <e1Detector id="det_Hugo_P1" lane="-14831_0" pos="10" freq="3600" file="detector_aggregated_output.xml" friendlyPos="true"/>
	  <e1Detector id="det_Gache_P2" lane="-12825#0_0" pos="10" freq="3600" file="detector_aggregated_output.xml" friendlyPos="true"/>
	  <e1Detector id="det_Estuaire_I3" lane="-10087#1_0" pos="10" freq="3600" file="detector_aggregated_output.xml" friendlyPos="true"/>
	  <e1Detector id="det_Moulin_I1" lane="-2605#1_0" pos="10" freq="3600" file="detector_aggregated_output.xml" friendlyPos="true"/>
	  <e1Detector id="det_Churchill" lane="-8698_0" pos="10" freq="3600" file="detector_aggregated_output.xml" friendlyPos="true"/>
	  <e1Detector id="det_Egalite_P2" lane="-2740_0" pos="10" freq="3600" file="detector_aggregated_output.xml" friendlyPos="true"/>
	  <e1Detector id="det_Fraternite_P1" lane="--4109#2_0" pos="10" freq="3600" file="detector_aggregated_output.xml" friendlyPos="true"/>
	  <e1Detector id="det_Dervallieres_P4" lane="-5838_0" pos="10" freq="3600" file="detector_aggregated_output.xml" friendlyPos="true"/>
	  <e1Detector id="det_Corps_de_Garde" lane="--11495#1_0" pos="10" freq="3600" file="detector_aggregated_output.xml" friendlyPos="true"/>
	  <e1Detector id="det_Patouillerie_P1" lane="-12371_0" pos="10" freq="3600" file="detector_aggregated_output.xml" friendlyPos="true"/>
	  <e1Detector id="det_Durantiere_I1" lane="--2374_0" pos="10" freq="3600" file="detector_aggregated_output.xml" friendlyPos="true"/>
	  <e1Detector id="det_Bellamy_I1" lane="-8829_0" pos="10" freq="3600" file="detector_aggregated_output.xml" friendlyPos="true"/>
	  <e1Detector id="det_Gabory_P2" lane="-12016_0" pos="10" freq="3600" file="detector_aggregated_output.xml" friendlyPos="true"/>
	  <e1Detector id="det_Vendee_P1" lane="--6664_0" pos="10" freq="3600" file="detector_aggregated_output.xml" friendlyPos="true"/>
	  <e1Detector id="det_Vendee_I4" lane="-6917_0" pos="10" freq="3600" file="detector_aggregated_output.xml" friendlyPos="true"/>
	  <e1Detector id="det_Bourdonnieres_P1" lane="-17793#5_0" pos="10" freq="3600" file="detector_aggregated_output.xml" friendlyPos="true"/>
	  <e1Detector id="det_Clisson_P4" lane="-17828#11_0" pos="10" freq="3600" file="detector_aggregated_output.xml" friendlyPos="true"/>
	  <e1Detector id="det_Maraichers_I2" lane="-17803#5_0" pos="10" freq="3600" file="detector_aggregated_output.xml" friendlyPos="true"/>
	  <e1Detector id="det_Joliot_Curie_I2" lane="--17749#7_0" pos="10" freq="3600" file="detector_aggregated_output.xml" friendlyPos="true"/>
	  <e1Detector id="det_Pas_Enchantes_P2" lane="-16803_0" pos="10" freq="3600" file="detector_aggregated_output.xml" friendlyPos="true"/>
	  <e1Detector id="det_Liberation_I3" lane="-3036#0_0" pos="10" freq="3600" file="detector_aggregated_output.xml" friendlyPos="true"/>
	  <e1Detector id="det_Michel_P1" lane="--17319#0_0" pos="10" freq="3600" file="detector_aggregated_output.xml" friendlyPos="true"/>
	  <e1Detector id="det_Malraux_P1" lane="--16737_0" pos="10" freq="3600" file="detector_aggregated_output.xml" friendlyPos="true"/>
	  <e1Detector id="det_Audibert_I" lane="-10738_0" pos="10" freq="3600" file="detector_aggregated_output.xml" friendlyPos="true"/>
	  <e1Detector id="det_Madeleine_I2" lane="-1396_0" pos="10" freq="3600" file="detector_aggregated_output.xml" friendlyPos="true"/>
	  <e1Detector id="det_Mangin_I" lane="--7888_0" pos="10" freq="3600" file="detector_aggregated_output.xml" friendlyPos="true"/>
	  <e1Detector id="det_Briand_P2" lane="-7128_0" pos="10" freq="3600" file="detector_aggregated_output.xml" friendlyPos="true"/>
	  <e1Detector id="det_Clemenceau_I1" lane="--1128#1_0" pos="10" freq="3600" file="detector_aggregated_output.xml" friendlyPos="true"/>
	  <e1Detector id="det_Patton_I" lane="--7226_0" pos="10" freq="3600" file="detector_aggregated_output.xml" friendlyPos="true"/>
	  <e1Detector id="det_Goncourt_I" lane="-1011#0_0" pos="10" freq="3600" file="detector_aggregated_output.xml" friendlyPos="true"/>
	  <e1Detector id="det_Pont_de_l_Arche" lane="--6383_0" pos="10" freq="3600" file="detector_aggregated_output.xml" friendlyPos="true"/>
	  <e1Detector id="det_Guist_hau_I5" lane="-7193#1_0" pos="10" freq="3600" file="detector_aggregated_output.xml" friendlyPos="true"/>
	  <e1Detector id="det_Guist_hau_P2" lane="-8011#1_0" pos="10" freq="3600" file="detector_aggregated_output.xml" friendlyPos="true"/>
	  <e1Detector id="det_Marceau" lane="--7232_0" pos="10" freq="3600" file="detector_aggregated_output.xml" friendlyPos="true"/>
	  <e1Detector id="det_Strasbourg_P3" lane="-7271_0" pos="10" freq="3600" file="detector_aggregated_output.xml" friendlyPos="true"/>
	  <e1Detector id="det_Roch_P2" lane="-13869#1_0" pos="10" freq="3600" file="detector_aggregated_output.xml" friendlyPos="true"/>
	  <e1Detector id="det_De_Gaulle__R__I2" lane="-1618_0" pos="10" freq="3600" file="detector_aggregated_output.xml" friendlyPos="true"/>
	  <e1Detector id="det_Schoelcher_P1" lane="-985#2_0" pos="10" freq="3600" file="detector_aggregated_output.xml" friendlyPos="true"/>
	  <e1Detector id="det_De_Gaulle__R__P1" lane="-15023#0_0" pos="10" freq="3600" file="detector_aggregated_output.xml" friendlyPos="true"/>
	  <e1Detector id="det_Pageot_P2" lane="-10815#1_0" pos="10" freq="3600" file="detector_aggregated_output.xml" friendlyPos="true"/>
	  <e1Detector id="det_Pageot_I2" lane="--10961#2_0" pos="10" freq="3600" file="detector_aggregated_output.xml" friendlyPos="true"/>
	  <e1Detector id="det_Thomas" lane="--1026#1_0" pos="10" freq="3600" file="detector_aggregated_output.xml" friendlyPos="true"/>
	  <e1Detector id="det_Fraternite_I1" lane="--9831#2_0" pos="10" freq="3600" file="detector_aggregated_output.xml" friendlyPos="true"/>
	  <e1Detector id="det_Marcel_Paul_P1" lane="-11237#0_0" pos="10" freq="3600" file="detector_aggregated_output.xml" friendlyPos="true"/>
	  <e1Detector id="det_Mollet_P4" lane="-8509#3_0" pos="10" freq="3600" file="detector_aggregated_output.xml" friendlyPos="true"/>
	  <e1Detector id="det_Allende_I1" lane="-4727#0_0" pos="10" freq="3600" file="detector_aggregated_output.xml" friendlyPos="true"/>
	  <e1Detector id="det_Allende_I2" lane="-4720#1_0" pos="10" freq="3600" file="detector_aggregated_output.xml" friendlyPos="true"/>
	  <e1Detector id="det_Fosse_I3" lane="-15641_0" pos="10" freq="3600" file="detector_aggregated_output.xml" friendlyPos="true"/>
	  <e1Detector id="det_Fosse_I2" lane="-12547#0_0" pos="10" freq="3600" file="detector_aggregated_output.xml" friendlyPos="true"/>
	  <e1Detector id="det_Dervallieres_I5" lane="-10957_0" pos="10" freq="3600" file="detector_aggregated_output.xml" friendlyPos="true"/>
	  <e1Detector id="det_Felibien_I1" lane="-17321#2_0" pos="10" freq="3600" file="detector_aggregated_output.xml" friendlyPos="true"/>
	  <e1Detector id="det_Guist_hau_I4" lane="-7193#0_0" pos="10" freq="3600" file="detector_aggregated_output.xml" friendlyPos="true"/>
	  <e1Detector id="det_Buat_P4" lane="--10112#2_0" pos="10" freq="3600" file="detector_aggregated_output.xml" friendlyPos="true"/>
	  <e1Detector id="det_Buat_P6" lane="-7799#1_0" pos="10" freq="3600" file="detector_aggregated_output.xml" friendlyPos="true"/>
	  <e1Detector id="det_Lauriol_I2" lane="-10884#2_0" pos="10" freq="3600" file="detector_aggregated_output.xml" friendlyPos="true"/>
	  <e1Detector id="det_Lauriol_I3" lane="-10853#0_0" pos="10" freq="3600" file="detector_aggregated_output.xml" friendlyPos="true"/>
	  <e1Detector id="det_Le_Lasseur_P1" lane="-10838#1_0" pos="10" freq="3600" file="detector_aggregated_output.xml" friendlyPos="true"/>
	  <e1Detector id="det_Faure_I1" lane="-10939#0_0" pos="10" freq="3600" file="detector_aggregated_output.xml" friendlyPos="true"/>
	  <e1Detector id="det_Faure_I2" lane="--7509#0_0" pos="10" freq="3600" file="detector_aggregated_output.xml" friendlyPos="true"/>
	  <e1Detector id="det_Vannes_I10" lane="--1187#0_0" pos="10" freq="3600" file="detector_aggregated_output.xml" friendlyPos="true"/>
	  <e1Detector id="det_Hauts_Paves_I3" lane="-1023_0" pos="10" freq="3600" file="detector_aggregated_output.xml" friendlyPos="true"/>
	  <e1Detector id="det_Dumas_I1" lane="-5790_0" pos="10" freq="3600" file="detector_aggregated_output.xml" friendlyPos="true"/>
	  <e1Detector id="det_Estuaire_I5" lane="-15377_0" pos="10" freq="3600" file="detector_aggregated_output.xml" friendlyPos="true"/>
	  <e1Detector id="det_Prairie_Duc_P3" lane="-967#0_0" pos="10" freq="3600" file="detector_aggregated_output.xml" friendlyPos="true"/>
	  <e1Detector id="det_Stalingrad_P3" lane="--5387_0" pos="10" freq="3600" file="detector_aggregated_output.xml" friendlyPos="true"/>
	  <e1Detector id="det_Basse_Chesnaie" lane="-8311#1_0" pos="10" freq="3600" file="detector_aggregated_output.xml" friendlyPos="true"/>
	  <e1Detector id="det_Calvaire_I2" lane="--7346_0" pos="10" freq="3600" file="detector_aggregated_output.xml" friendlyPos="true"/>
	  <e1Detector id="det_Meusnier_Querlon_P1" lane="--10952#3_0" pos="10" freq="3600" file="detector_aggregated_output.xml" friendlyPos="true"/>
	  <e1Detector id="det_Monselet" lane="-9802_0" pos="10" freq="3600" file="detector_aggregated_output.xml" friendlyPos="true"/>
	  <e1Detector id="det_St_Jacques_P1" lane="-11676#3_0" pos="10" freq="3600" file="detector_aggregated_output.xml" friendlyPos="true"/>
	  <e1Detector id="det_St_Joseph_I13" lane="--2513#0_0" pos="10" freq="3600" file="detector_aggregated_output.xml" friendlyPos="true"/>
	  <e1Detector id="det_Pitre_Chevallier_P1" lane="-2057#0_0" pos="10" freq="3600" file="detector_aggregated_output.xml" friendlyPos="true"/>
	  <e1Detector id="det_Prairie_Mauves_I9" lane="-13462#2_0" pos="10" freq="3600" file="detector_aggregated_output.xml" friendlyPos="true"/>
	  <e1Detector id="det_Clemenceau_I2" lane="-7875_0" pos="10" freq="3600" file="detector_aggregated_output.xml" friendlyPos="true"/>
	  <e1Detector id="det_Seattle_P1" lane="-8437_0" pos="10" freq="3600" file="detector_aggregated_output.xml" friendlyPos="true"/>
	  <e1Detector id="det_Seattle_P2" lane="-13352_0" pos="10" freq="3600" file="detector_aggregated_output.xml" friendlyPos="true"/>
	  <e1Detector id="det_Doulon_P3" lane="--13695#0_0" pos="10" freq="3600" file="detector_aggregated_output.xml" friendlyPos="true"/>
	  <e1Detector id="det_Doulon_P4" lane="--14792_0" pos="10" freq="3600" file="detector_aggregated_output.xml" friendlyPos="true"/>
	  <e1Detector id="det_Doulon_P6" lane="--7398#2_0" pos="10" freq="3600" file="detector_aggregated_output.xml" friendlyPos="true"/>
	  <e1Detector id="det_Aiguillon_I1" lane="-9931_0" pos="10" freq="3600" file="detector_aggregated_output.xml" friendlyPos="true"/>
	  <e1Detector id="det_St_Jacques_P3" lane="-17774#0_0" pos="10" freq="3600" file="detector_aggregated_output.xml" friendlyPos="true"/>
	  <e1Detector id="det_Franklin" lane="-2942#0_0" pos="10" freq="3600" file="detector_aggregated_output.xml" friendlyPos="true"/>
	  <e1Detector id="det_Calvaire_P2" lane="--15748_0" pos="10" freq="3600" file="detector_aggregated_output.xml" friendlyPos="true"/>
	  <e1Detector id="det_Berruyer_I" lane="-7322_0" pos="10" freq="3600" file="detector_aggregated_output.xml" friendlyPos="true"/>
	  <e1Detector id="det_Petit_Port_P" lane="--1474#1_0" pos="10" freq="3600" file="detector_aggregated_output.xml" friendlyPos="true"/>
	  <e1Detector id="det_Mollet_P1" lane="-7484_0" pos="10" freq="3600" file="detector_aggregated_output.xml" friendlyPos="true"/>
	  <e1Detector id="det_Luther_King_P2" lane="-8572#1_0" pos="10" freq="3600" file="detector_aggregated_output.xml" friendlyPos="true"/>
	  <e1Detector id="det_Cote_St_Sebastien_I4" lane="-8016#1_0" pos="10" freq="3600" file="detector_aggregated_output.xml" friendlyPos="true"/>
	  <e1Detector id="det_Cassegrain" lane="-4314_0" pos="10" freq="3600" file="detector_aggregated_output.xml" friendlyPos="true"/>
	  <e1Detector id="det_Tbilissi_P" lane="--11815_0" pos="10" freq="3600" file="detector_aggregated_output.xml" friendlyPos="true"/>
	  <e1Detector id="det_Tribunes_I2" lane="-11444_0" pos="10" freq="3600" file="detector_aggregated_output.xml" friendlyPos="true"/>
	  <e1Detector id="det_Angeviniere_P3" lane="-3482#1_0" pos="10" freq="3600" file="detector_aggregated_output.xml" friendlyPos="true"/>
	  <e1Detector id="det_Paul_P2" lane="-15298#1_0" pos="10" freq="3600" file="detector_aggregated_output.xml" friendlyPos="true"/>
	  <e1Detector id="det_Vannes_P8" lane="-2752#1_0" pos="10" freq="3600" file="detector_aggregated_output.xml" friendlyPos="true"/>
	  <e1Detector id="det_Liberation_P2" lane="-9960#0_0" pos="10" freq="3600" file="detector_aggregated_output.xml" friendlyPos="true"/>
	  <e1Detector id="det_Coulmier_I4" lane="-2933#0_0" pos="10" freq="3600" file="detector_aggregated_output.xml" friendlyPos="true"/>
	  <e1Detector id="det_Vertou_I3" lane="--15562#2_0" pos="10" freq="3600" file="detector_aggregated_output.xml" friendlyPos="true"/>
	  <e1Detector id="det_Buat_I5" lane="-10112#2_0" pos="10" freq="3600" file="detector_aggregated_output.xml" friendlyPos="true"/>
	  <e1Detector id="det_Verne_P2" lane="-9489#2_0" pos="10" freq="3600" file="detector_aggregated_output.xml" friendlyPos="true"/>
	  <e1Detector id="det_Ste_Luce_I6" lane="-16163_0" pos="10" freq="3600" file="detector_aggregated_output.xml" friendlyPos="true"/>
	  <e1Detector id="det_Ste_Luce_P8" lane="-9437_0" pos="10" freq="3600" file="detector_aggregated_output.xml" friendlyPos="true"/>
	  <e1Detector id="det_Ste_Luce_I8" lane="-1480_0" pos="10" freq="3600" file="detector_aggregated_output.xml" friendlyPos="true"/>
	  <e1Detector id="det_Ste_Luce_P6" lane="--4350#3_0" pos="10" freq="3600" file="detector_aggregated_output.xml" friendlyPos="true"/>
	  <e1Detector id="det_Viviani_I1" lane="-10587#1_0" pos="10" freq="3600" file="detector_aggregated_output.xml" friendlyPos="true"/>
	  <e1Detector id="det_Brandt_I" lane="-3988_0" pos="10" freq="3600" file="detector_aggregated_output.xml" friendlyPos="true"/>
	  <e1Detector id="det_Estuaire_I2" lane="--16629#2_0" pos="10" freq="3600" file="detector_aggregated_output.xml" friendlyPos="true"/>
	  <e1Detector id="det_Prairie_Duc_P4" lane="-965#2_0" pos="10" freq="3600" file="detector_aggregated_output.xml" friendlyPos="true"/>
	  <e1Detector id="det_Antilles" lane="-10088#2_0" pos="10" freq="3600" file="detector_aggregated_output.xml" friendlyPos="true"/>
	  <e1Detector id="det_Verne_P5" lane="-1821_0" pos="10" freq="3600" file="detector_aggregated_output.xml" friendlyPos="true"/>
	  <e1Detector id="det_Verne_P6" lane="--10115#0_0" pos="10" freq="3600" file="detector_aggregated_output.xml" friendlyPos="true"/>
	  <e1Detector id="det_Paris_P1" lane="-14255_0" pos="10" freq="3600" file="detector_aggregated_output.xml" friendlyPos="true"/>
	  <e1Detector id="det_Paris_P2" lane="--14719#1_0" pos="10" freq="3600" file="detector_aggregated_output.xml" friendlyPos="true"/>
	  <e1Detector id="det_Paris_P3" lane="-2977_0" pos="10" freq="3600" file="detector_aggregated_output.xml" friendlyPos="true"/>
	  <e1Detector id="det_St_Sebastien_P" lane="-10792_0" pos="10" freq="3600" file="detector_aggregated_output.xml" friendlyPos="true"/>
	  <e1Detector id="det_Belges_P2" lane="--6941#1_0" pos="10" freq="3600" file="detector_aggregated_output.xml" friendlyPos="true"/>
	  <e1Detector id="det_St_Joseph_P05" lane="-2700_0" pos="10" freq="3600" file="detector_aggregated_output.xml" friendlyPos="true"/>
	  <e1Detector id="det_Paul_I1" lane="-12271#0_0" pos="10" freq="3600" file="detector_aggregated_output.xml" friendlyPos="true"/>
	  <e1Detector id="det_Berlin_I3" lane="-8716#1_0" pos="10" freq="3600" file="detector_aggregated_output.xml" friendlyPos="true"/>
	  <e1Detector id="det_Bolardière_I" lane="-6606#3_0" pos="10" freq="3600" file="detector_aggregated_output.xml" friendlyPos="true"/>
	  <e1Detector id="det_Millerand_P2" lane="-9916_0" pos="10" freq="3600" file="detector_aggregated_output.xml" friendlyPos="true"/>
	  <e1Detector id="det_Millerand_I2" lane="-7091#3_0" pos="10" freq="3600" file="detector_aggregated_output.xml" friendlyPos="true"/>
	  <e1Detector id="det_Rondeau_I2" lane="-10651#0_0" pos="10" freq="3600" file="detector_aggregated_output.xml" friendlyPos="true"/>
	  <e1Detector id="det_Gigant" lane="-6747_0" pos="10" freq="3600" file="detector_aggregated_output.xml" friendlyPos="true"/>
	  <e1Detector id="det_St_Nazaire_I3" lane="-5451_0" pos="10" freq="3600" file="detector_aggregated_output.xml" friendlyPos="true"/>
	  <e1Detector id="det_Launay_P1" lane="-2674_0" pos="10" freq="3600" file="detector_aggregated_output.xml" friendlyPos="true"/>
	  <e1Detector id="det_Fosse_P2" lane="-7033_0" pos="10" freq="3600" file="detector_aggregated_output.xml" friendlyPos="true"/>
	  <e1Detector id="det_Jaures_P1" lane="-7231_0" pos="10" freq="3600" file="detector_aggregated_output.xml" friendlyPos="true"/>
	  <e1Detector id="det_Bellamy_P7" lane="--4763_0" pos="10" freq="3600" file="detector_aggregated_output.xml" friendlyPos="true"/>
	  <e1Detector id="det_Bellamy_P6" lane="--7420_0" pos="10" freq="3600" file="detector_aggregated_output.xml" friendlyPos="true"/>
	  <e1Detector id="det_Schuman_I2" lane="-5981_0" pos="10" freq="3600" file="detector_aggregated_output.xml" friendlyPos="true"/>
	  <e1Detector id="det_Schuman_P4" lane="-15578#0_0" pos="10" freq="3600" file="detector_aggregated_output.xml" friendlyPos="true"/>
	  <e1Detector id="det_Rennes_P2" lane="--10155_0" pos="10" freq="3600" file="detector_aggregated_output.xml" friendlyPos="true"/>
	  <e1Detector id="det_Berlioz_P1" lane="--8824#5_0" pos="10" freq="3600" file="detector_aggregated_output.xml" friendlyPos="true"/>
	  <e1Detector id="det_Americains_P1" lane="-7496#1_0" pos="10" freq="3600" file="detector_aggregated_output.xml" friendlyPos="true"/>
	  <e1Detector id="det_Koufra" lane="--11153#4_0" pos="10" freq="3600" file="detector_aggregated_output.xml" friendlyPos="true"/>
	  <e1Detector id="det_Marsauderie" lane="--2807#2_0" pos="10" freq="3600" file="detector_aggregated_output.xml" friendlyPos="true"/>
	  <e1Detector id="det_Croissant_I" lane="--11467_0" pos="10" freq="3600" file="detector_aggregated_output.xml" friendlyPos="true"/>
	  <e1Detector id="det_Verne_I4" lane="--16891_0" pos="10" freq="3600" file="detector_aggregated_output.xml" friendlyPos="true"/>
	  <e1Detector id="det_Buat_I2" lane="--7799#4_0" pos="10" freq="3600" file="detector_aggregated_output.xml" friendlyPos="true"/>
	  <e1Detector id="det_Pasteur_P2" lane="-9815#0_0" pos="10" freq="3600" file="detector_aggregated_output.xml" friendlyPos="true"/>
	  <e1Detector id="det_Pasteur_I2" lane="-2229#1_0" pos="10" freq="3600" file="detector_aggregated_output.xml" friendlyPos="true"/>
	  <e1Detector id="det_Paris_I5" lane="-879#1_0" pos="10" freq="3600" file="detector_aggregated_output.xml" friendlyPos="true"/>
	  <e1Detector id="det_Paris_I7" lane="-10120_0" pos="10" freq="3600" file="detector_aggregated_output.xml" friendlyPos="true"/>
	  <e1Detector id="det_Guinodeau_P1" lane="-1318_0" pos="10" freq="3600" file="detector_aggregated_output.xml" friendlyPos="true"/>
	  <e1Detector id="det_Bellamy_P5" lane="--6423#1_0" pos="10" freq="3600" file="detector_aggregated_output.xml" friendlyPos="true"/>
	  <e1Detector id="det_Lamoricière_P2" lane="--7326#0_0" pos="10" freq="3600" file="detector_aggregated_output.xml" friendlyPos="true"/>
	  <e1Detector id="det_Lamoricière_P1" lane="--5860#0_0" pos="10" freq="3600" file="detector_aggregated_output.xml" friendlyPos="true"/>
	  <e1Detector id="det_Rosière_P1" lane="--8915#1_0" pos="10" freq="3600" file="detector_aggregated_output.xml" friendlyPos="true"/>
	  <e1Detector id="det_Flandres_P1" lane="-14048_0" pos="10" freq="3600" file="detector_aggregated_output.xml" friendlyPos="true"/>
	  <e1Detector id="det_Riviere_P1" lane="-3803_0" pos="10" freq="3600" file="detector_aggregated_output.xml" friendlyPos="true"/>
	  <e1Detector id="det_Republique_P1" lane="--3078_0" pos="10" freq="3600" file="detector_aggregated_output.xml" friendlyPos="true"/>
	  <e1Detector id="det_Ingres_P1" lane="--2334#1_0" pos="10" freq="3600" file="detector_aggregated_output.xml" friendlyPos="true"/>
	  <e1Detector id="det_Landreau_P3" lane="-8312_0" pos="10" freq="3600" file="detector_aggregated_output.xml" friendlyPos="true"/>
	  <e1Detector id="det_Seattle_I2" lane="-13423#0_0" pos="10" freq="3600" file="detector_aggregated_output.xml" friendlyPos="true"/>
	  <e1Detector id="det_Babin_Chevaye_P2" lane="-10568#0_0" pos="10" freq="3600" file="detector_aggregated_output.xml" friendlyPos="true"/>
	  <e1Detector id="det_Gache_I1" lane="-17388#0_0" pos="10" freq="3600" file="detector_aggregated_output.xml" friendlyPos="true"/>
	  <e1Detector id="det_Gache_I2" lane="-7131#2_0" pos="10" freq="3600" file="detector_aggregated_output.xml" friendlyPos="true"/>
	  <e1Detector id="det_Martyrs_P1" lane="-10953_0" pos="10" freq="3600" file="detector_aggregated_output.xml" friendlyPos="true"/>
	  <e1Detector id="det_Baco_P" lane="-11854_0" pos="10" freq="3600" file="detector_aggregated_output.xml" friendlyPos="true"/>
	  <e1Detector id="det_Maison_Rouge_I" lane="-1917#0_0" pos="10" freq="3600" file="detector_aggregated_output.xml" friendlyPos="true"/>
	  <e1Detector id="det_Americains_P3" lane="-12372_0" pos="10" freq="3600" file="detector_aggregated_output.xml" friendlyPos="true"/>
	  <e1Detector id="det_Americains_I2" lane="-12746#0_0" pos="10" freq="3600" file="detector_aggregated_output.xml" friendlyPos="true"/>
	  <e1Detector id="det_Americains_P2" lane="--12746#0_0" pos="10" freq="3600" file="detector_aggregated_output.xml" friendlyPos="true"/>
	  <e1Detector id="det_Doumergue_P1" lane="-11233#3_0" pos="10" freq="3600" file="detector_aggregated_output.xml" friendlyPos="true"/>
	  <e1Detector id="det_Doumergue_I3" lane="--11233#3_0" pos="10" freq="3600" file="detector_aggregated_output.xml" friendlyPos="true"/>
	  <e1Detector id="det_Doumergue_I2" lane="--5154#2_0" pos="10" freq="3600" file="detector_aggregated_output.xml" friendlyPos="true"/>
	  <e1Detector id="det_Rieux_P" lane="--1411#1_0" pos="10" freq="3600" file="detector_aggregated_output.xml" friendlyPos="true"/>
	  <e1Detector id="det_CHA_100057" lane="-5546#1_0" pos="10" freq="3600" file="detector_aggregated_output.xml" friendlyPos="true"/>
	  <e1Detector id="det_CHA_100058" lane="--5546#1_0" pos="10" freq="3600" file="detector_aggregated_output.xml" friendlyPos="true"/>
	  <e1Detector id="det_Juin_I1" lane="-4658#2_0" pos="10" freq="3600" file="detector_aggregated_output.xml" friendlyPos="true"/>
	  <e1Detector id="det_Baugerie_P1" lane="-10795#3_0" pos="10" freq="3600" file="detector_aggregated_output.xml" friendlyPos="true"/>
	  <e1Detector id="det_Loire" lane="-3064_0" pos="10" freq="3600" file="detector_aggregated_output.xml" friendlyPos="true"/>
	  <e1Detector id="det_Berthelot_I2" lane="-7754_0" pos="10" freq="3600" file="detector_aggregated_output.xml" friendlyPos="true"/>