<?xml version="1.0" encoding="UTF-8"?>

<!-- generated on 2025-04-09 13:35:41.576900 by randomTrips.py v1_22_0+0002-63e50f52594
<configuration>
    <net-file value="MyNetwork.net.xml"/>
    <output-trip-file value="MyTrips.trips.xml"/>
    <vehicle-class value="passenger"/>
    <fringe-factor value="10"/>
    <validate value="True"/>
</configuration>
-->

<!-- generated on 2025-04-09 13:34:59 by Eclipse SUMO duarouter Version 1.22.0
<duarouterConfiguration xmlns:xsi="http://www.w3.org/2001/XMLSchema-instance" xsi:noNamespaceSchemaLocation="http://sumo.dlr.de/xsd/duarouterConfiguration.xsd">

    <input>
        <net-file value="MyNetwork.net.xml"/>
        <route-files value="MyTrips.trips.xml"/>
    </input>

    <output>
        <output-file value="MyTrips.trips.xml.tmp"/>
        <alternatives-output value="NUL"/>
        <write-trips value="true"/>
    </output>

    <time>
        <begin value="0"/>
        <end value="3600"/>
    </time>

    <report>
        <no-warnings value="true"/>
        <ignore-errors value="true"/>
        <no-step-log value="true"/>
    </report>

</duarouterConfiguration>
-->

<routes xmlns:xsi="http://www.w3.org/2001/XMLSchema-instance" xsi:noNamespaceSchemaLocation="http://sumo.dlr.de/xsd/routes_file.xsd">
    <vType id="passenger" vClass="passenger"/>
    <trip id="0" type="passenger" depart="0.00" from="-16373" to="--1147"/>
    <trip id="1" type="passenger" depart="1.00" from="--4013#1" to="--5113"/>
    <trip id="2" type="passenger" depart="2.00" from="-3371#0" to="-3625#1"/>
    <trip id="3" type="passenger" depart="3.00" from="-6977#0" to="--1687#1"/>
    <trip id="4" type="passenger" depart="4.00" from="--7397#2" to="--11812"/>
    <trip id="5" type="passenger" depart="5.00" from="--3248#1" to="-16575#0"/>
    <trip id="6" type="passenger" depart="6.00" from="--11307#1" to="--4417#1"/>
    <trip id="7" type="passenger" depart="7.00" from="-17108#1" to="-1912#1"/>
    <trip id="8" type="passenger" depart="8.00" from="--3279#1" to="-2427"/>
    <trip id="9" type="passenger" depart="9.00" from="-5039" to="--10352#0"/>
    <trip id="10" type="passenger" depart="10.00" from="-4983#1" to="-3921#1"/>
    <trip id="11" type="passenger" depart="11.00" from="--5189" to="--3340#0"/>
    <trip id="12" type="passenger" depart="12.00" from="-8668#1" to="--8753"/>
    <trip id="13" type="passenger" depart="13.00" from="--16012" to="--17799#12"/>
    <trip id="14" type="passenger" depart="14.00" from="-5801" to="-2650#2"/>
    <trip id="15" type="passenger" depart="15.00" from="-5010" to="-4366"/>
    <trip id="16" type="passenger" depart="16.00" from="-10737#1" to="-9227#1"/>
    <trip id="17" type="passenger" depart="17.00" from="--5839#1" to="-1998#0"/>
    <trip id="18" type="passenger" depart="18.00" from="-5342#1" to="-2915"/>
    <trip id="19" type="passenger" depart="19.00" from="-6090#0" to="-2262#0"/>
    <trip id="20" type="passenger" depart="20.00" from="-2769#0" to="--13543"/>
    <trip id="21" type="passenger" depart="21.00" from="--3393" to="--7148"/>
    <trip id="22" type="passenger" depart="22.00" from="--1535" to="--5262#0"/>
    <trip id="23" type="passenger" depart="23.00" from="--16734#1" to="--6464"/>
    <trip id="24" type="passenger" depart="24.00" from="-1597#1" to="-1000"/>
    <trip id="25" type="passenger" depart="25.00" from="--5688#3" to="--4824#1"/>
    <trip id="26" type="passenger" depart="26.00" from="--3906#2" to="-8384"/>
    <trip id="27" type="passenger" depart="27.00" from="-1692#1" to="-2766"/>
    <trip id="28" type="passenger" depart="28.00" from="--2394#1" to="-4350#4"/>
    <trip id="29" type="passenger" depart="29.00" from="--2284#1" to="-10469"/>
    <trip id="30" type="passenger" depart="30.00" from="-9650#0" to="-3225"/>
    <trip id="31" type="passenger" depart="31.00" from="-11485" to="-3714"/>
    <trip id="32" type="passenger" depart="32.00" from="-5687#8" to="-5143"/>
    <trip id="33" type="passenger" depart="33.00" from="--3405#1" to="--1206#0"/>
    <trip id="34" type="passenger" depart="34.00" from="--4759" to="--6135"/>
    <trip id="35" type="passenger" depart="35.00" from="--3161" to="-8547#1"/>
    <trip id="36" type="passenger" depart="36.00" from="-6411" to="--7844#3"/>
    <trip id="37" type="passenger" depart="37.00" from="-17700#0" to="-10980#1"/>
    <trip id="38" type="passenger" depart="38.00" from="-7588" to="-14240"/>
    <trip id="39" type="passenger" depart="39.00" from="--3839#2" to="--5651#0"/>
    <trip id="40" type="passenger" depart="40.00" from="-11695#3" to="--6067"/>
    <trip id="41" type="passenger" depart="41.00" from="-13308" to="-7720"/>
    <trip id="42" type="passenger" depart="42.00" from="--6301#1" to="--5063"/>
    <trip id="43" type="passenger" depart="43.00" from="-9838#0" to="-1681"/>
    <trip id="44" type="passenger" depart="44.00" from="--1595" to="--1367#0"/>
    <trip id="45" type="passenger" depart="45.00" from="--1730" to="-3027"/>
    <trip id="46" type="passenger" depart="46.00" from="-4627" to="-1230"/>
    <trip id="47" type="passenger" depart="47.00" from="--1439#0" to="-10530"/>
    <trip id="48" type="passenger" depart="48.00" from="-982" to="-17784#4"/>
    <trip id="49" type="passenger" depart="49.00" from="-8966" to="-6722#3"/>
    <trip id="50" type="passenger" depart="50.00" from="--10470#1" to="-4241"/>
    <trip id="51" type="passenger" depart="51.00" from="-2216" to="-1822"/>
    <trip id="52" type="passenger" depart="52.00" from="--3904" to="-3231"/>
    <trip id="53" type="passenger" depart="53.00" from="--1740" to="-1305#1"/>
    <trip id="54" type="passenger" depart="54.00" from="--8123#1" to="-8780#3"/>
    <trip id="55" type="passenger" depart="55.00" from="-6402#1" to="--6073#1"/>
    <trip id="56" type="passenger" depart="56.00" from="--9335#1" to="--3838#0"/>
    <trip id="57" type="passenger" depart="57.00" from="-7567" to="-7040#0"/>
    <trip id="59" type="passenger" depart="59.00" from="-1454#0" to="--3253"/>
    <trip id="60" type="passenger" depart="60.00" from="-3938" to="-1849#0"/>
    <trip id="61" type="passenger" depart="61.00" from="-4262" to="-17796#9"/>
    <trip id="62" type="passenger" depart="62.00" from="--10035#1" to="--8212"/>
    <trip id="63" type="passenger" depart="63.00" from="--10920#1" to="-8307#0"/>
    <trip id="64" type="passenger" depart="64.00" from="-6483#1" to="-6005#2"/>
    <trip id="65" type="passenger" depart="65.00" from="--4594#2" to="--1454#0"/>
    <trip id="66" type="passenger" depart="66.00" from="-6459" to="-8637#0"/>
    <trip id="67" type="passenger" depart="67.00" from="--15657#1" to="-15581"/>
    <trip id="68" type="passenger" depart="68.00" from="--14800" to="-4901"/>
    <trip id="69" type="passenger" depart="69.00" from="-3998#0" to="--2693#2"/>
    <trip id="70" type="passenger" depart="70.00" from="--8578#0" to="-1971"/>
    <trip id="71" type="passenger" depart="71.00" from="--3856#0" to="-7120"/>
    <trip id="72" type="passenger" depart="72.00" from="--7439" to="--4887#4"/>
    <trip id="73" type="passenger" depart="73.00" from="-10840" to="-4370#0"/>
    <trip id="74" type="passenger" depart="74.00" from="--2992#3" to="--7749#4"/>
    <trip id="75" type="passenger" depart="75.00" from="-9810#10" to="-3342"/>
    <trip id="76" type="passenger" depart="76.00" from="--7779#0" to="-1730"/>
    <trip id="77" type="passenger" depart="77.00" from="--17814#0" to="--5139#0"/>
    <trip id="78" type="passenger" depart="78.00" from="--5169" to="-2395"/>
    <trip id="79" type="passenger" depart="79.00" from="--3416" to="--5070"/>
    <trip id="80" type="passenger" depart="80.00" from="--14865#4" to="-3093"/>
    <trip id="81" type="passenger" depart="81.00" from="--3404#0" to="-7845#1"/>
    <trip id="82" type="passenger" depart="82.00" from="-6058" to="--15404"/>
    <trip id="83" type="passenger" depart="83.00" from="--3509" to="-3537#1"/>
    <trip id="84" type="passenger" depart="84.00" from="--3217#0" to="--2794#0"/>
    <trip id="85" type="passenger" depart="85.00" from="-7980" to="-2186#1"/>
    <trip id="87" type="passenger" depart="87.00" from="-5011" to="--4150#0"/>
    <trip id="88" type="passenger" depart="88.00" from="--16461" to="-1282#1"/>
    <trip id="89" type="passenger" depart="89.00" from="--7461#2" to="-1475#1"/>
    <trip id="90" type="passenger" depart="90.00" from="-3216#0" to="-3599"/>
    <trip id="91" type="passenger" depart="91.00" from="-9455#0" to="--1801#0"/>
    <trip id="92" type="passenger" depart="92.00" from="--6465" to="--8819#0"/>
    <trip id="93" type="passenger" depart="93.00" from="-6090#0" to="--5691"/>
    <trip id="95" type="passenger" depart="95.00" from="--7397#1" to="--6500#0"/>
    <trip id="96" type="passenger" depart="96.00" from="--3626" to="-8205"/>
    <trip id="97" type="passenger" depart="97.00" from="--7860" to="-6740"/>
    <trip id="98" type="passenger" depart="98.00" from="-11152" to="--14026#1"/>
    <trip id="99" type="passenger" depart="99.00" from="-993#3" to="-6077"/>
    <trip id="100" type="passenger" depart="100.00" from="-8914#2" to="-8240#2"/>
    <trip id="101" type="passenger" depart="101.00" from="-5822#2" to="--3544#0"/>
    <trip id="102" type="passenger" depart="102.00" from="--8841#6" to="--4949#0"/>
    <trip id="103" type="passenger" depart="103.00" from="--6389#0" to="--1458"/>
    <trip id="104" type="passenger" depart="104.00" from="--5842#3" to="-9603"/>
    <trip id="105" type="passenger" depart="105.00" from="--3860#0" to="-5239#3"/>
    <trip id="106" type="passenger" depart="106.00" from="--8163#1" to="-1236"/>
    <trip id="107" type="passenger" depart="107.00" from="-8668#4" to="-9847"/>
    <trip id="108" type="passenger" depart="108.00" from="-1146#0" to="-4214#1"/>
    <trip id="109" type="passenger" depart="109.00" from="--2182#2" to="--7562"/>
    <trip id="110" type="passenger" depart="110.00" from="-8909#0" to="-2275"/>
    <trip id="111" type="passenger" depart="111.00" from="-10937" to="-4674"/>
    <trip id="112" type="passenger" depart="112.00" from="--13988#1" to="-2358#1"/>
    <trip id="113" type="passenger" depart="113.00" from="--9417#0" to="-6525#1"/>
    <trip id="114" type="passenger" depart="114.00" from="--2202#1" to="-8903"/>
    <trip id="115" type="passenger" depart="115.00" from="--15353#1" to="--4025#3"/>
    <trip id="116" type="passenger" depart="116.00" from="-13925" to="-3611#2"/>
    <trip id="117" type="passenger" depart="117.00" from="--3475#1" to="--2430#0"/>
    <trip id="118" type="passenger" depart="118.00" from="-6898" to="--5641"/>
    <trip id="119" type="passenger" depart="119.00" from="-13916" to="-2924#1"/>
    <trip id="120" type="passenger" depart="120.00" from="--7189" to="-2352"/>
    <trip id="121" type="passenger" depart="121.00" from="-10218#0" to="-8361#0"/>
    <trip id="122" type="passenger" depart="122.00" from="--3023#1" to="-4180"/>
    <trip id="123" type="passenger" depart="123.00" from="--3513#2" to="-10984#0"/>
    <trip id="124" type="passenger" depart="124.00" from="-1968" to="--7591#5"/>
    <trip id="125" type="passenger" depart="125.00" from="--4784#1" to="-4756"/>
    <trip id="126" type="passenger" depart="126.00" from="--1496#6" to="-14212"/>
    <trip id="127" type="passenger" depart="127.00" from="-9887" to="-9876"/>
    <trip id="128" type="passenger" depart="128.00" from="--15059" to="--4920"/>
    <trip id="129" type="passenger" depart="129.00" from="--3860#0" to="-8352#1"/>
    <trip id="130" type="passenger" depart="130.00" from="-6531#0" to="-7352"/>
    <trip id="131" type="passenger" depart="131.00" from="--5681" to="--3364"/>
    <trip id="132" type="passenger" depart="132.00" from="-5454#3" to="-3997"/>
    <trip id="133" type="passenger" depart="133.00" from="-14645" to="-9661"/>
    <trip id="134" type="passenger" depart="134.00" from="-1749" to="--10428"/>
    <trip id="135" type="passenger" depart="135.00" from="-5147" to="--7584"/>
    <trip id="136" type="passenger" depart="136.00" from="-17828#6" to="-8433"/>
    <trip id="137" type="passenger" depart="137.00" from="--1955" to="--2295#3"/>
    <trip id="138" type="passenger" depart="138.00" from="--1708" to="-2005"/>
    <trip id="139" type="passenger" depart="139.00" from="--3960#7" to="-2659#2"/>
    <trip id="140" type="passenger" depart="140.00" from="-3031#0" to="--4577#0"/>
    <trip id="141" type="passenger" depart="141.00" from="-15897#2" to="--6089"/>
    <trip id="142" type="passenger" depart="142.00" from="--8906#3" to="-7844#2"/>
    <trip id="144" type="passenger" depart="144.00" from="--7461#2" to="--6398#0"/>
    <trip id="145" type="passenger" depart="145.00" from="--10152" to="-5059"/>
    <trip id="146" type="passenger" depart="146.00" from="-1603#1" to="--6054#1"/>
    <trip id="147" type="passenger" depart="147.00" from="-3461#0" to="-1995"/>
    <trip id="148" type="passenger" depart="148.00" from="--7591#2" to="--10514"/>
    <trip id="149" type="passenger" depart="149.00" from="--15127#1" to="-7454#0"/>
    <trip id="150" type="passenger" depart="150.00" from="-7386" to="-1922#2"/>
    <trip id="151" type="passenger" depart="151.00" from="-5469#4" to="-2330#1"/>
    <trip id="152" type="passenger" depart="152.00" from="--2097" to="--2661#3"/>
    <trip id="153" type="passenger" depart="153.00" from="--4603" to="-7732#1"/>
    <trip id="154" type="passenger" depart="154.00" from="-4746#1" to="-6722#0"/>
    <trip id="155" type="passenger" depart="155.00" from="-7201" to="--4837#0"/>
    <trip id="156" type="passenger" depart="156.00" from="--3625#1" to="--1896#0"/>
    <trip id="157" type="passenger" depart="157.00" from="-4300" to="-7476#1"/>
    <trip id="158" type="passenger" depart="158.00" from="--6569#0" to="-2958"/>
    <trip id="159" type="passenger" depart="159.00" from="--2181#1" to="-8311#1"/>
    <trip id="160" type="passenger" depart="160.00" from="-6130#1" to="-9321"/>
    <trip id="161" type="passenger" depart="161.00" from="-5066" to="-7411#1"/>
    <trip id="162" type="passenger" depart="162.00" from="--11153#1" to="-4485"/>
    <trip id="163" type="passenger" depart="163.00" from="--5052" to="-8324#0"/>
    <trip id="165" type="passenger" depart="165.00" from="-5066" to="--6129"/>
    <trip id="167" type="passenger" depart="167.00" from="-6299#3" to="-6684"/>
    <trip id="168" type="passenger" depart="168.00" from="--3321" to="-5745"/>
    <trip id="169" type="passenger" depart="169.00" from="--8299" to="--7656#5"/>
    <trip id="170" type="passenger" depart="170.00" from="-4713#0" to="--5182"/>
    <trip id="171" type="passenger" depart="171.00" from="--11123#0" to="--4218#4"/>
    <trip id="172" type="passenger" depart="172.00" from="--4997" to="-6913"/>
    <trip id="173" type="passenger" depart="173.00" from="-8883" to="--6522#4"/>
    <trip id="174" type="passenger" depart="174.00" from="-16498" to="-1109"/>
    <trip id="175" type="passenger" depart="175.00" from="-9365#1" to="-1805"/>
    <trip id="176" type="passenger" depart="176.00" from="-8076" to="--2294"/>
    <trip id="177" type="passenger" depart="177.00" from="-8941" to="--3836#0"/>
    <trip id="178" type="passenger" depart="178.00" from="-8793#0" to="--6113"/>
    <trip id="179" type="passenger" depart="179.00" from="--17201#0" to="-13013"/>
    <trip id="180" type="passenger" depart="180.00" from="-3201#1" to="--7820#6"/>
    <trip id="181" type="passenger" depart="181.00" from="-1441#0" to="-16872"/>
    <trip id="183" type="passenger" depart="183.00" from="--3692" to="-4078#0"/>
    <trip id="184" type="passenger" depart="184.00" from="--10081" to="-8224"/>
    <trip id="185" type="passenger" depart="185.00" from="-10812#2" to="-4220"/>
    <trip id="186" type="passenger" depart="186.00" from="-3473#5" to="-3558#4"/>
    <trip id="187" type="passenger" depart="187.00" from="--5597" to="--1534#1"/>
    <trip id="188" type="passenger" depart="188.00" from="-1793#0" to="--8473#0"/>
    <trip id="189" type="passenger" depart="189.00" from="--4752" to="-6398#0"/>
    <trip id="190" type="passenger" depart="190.00" from="-3056" to="--7594#0"/>
    <trip id="191" type="passenger" depart="191.00" from="--4610#4" to="-11449#0"/>
    <trip id="192" type="passenger" depart="192.00" from="--6454#0" to="--7546#3"/>
    <trip id="193" type="passenger" depart="193.00" from="--1875" to="-1219"/>
    <trip id="194" type="passenger" depart="194.00" from="-810#0" to="-3628#4"/>
    <trip id="195" type="passenger" depart="195.00" from="-7342#4" to="-2871#1"/>
    <trip id="196" type="passenger" depart="196.00" from="--4460#1" to="-1951#0"/>
    <trip id="197" type="passenger" depart="197.00" from="--10035#1" to="--6986#2"/>
    <trip id="198" type="passenger" depart="198.00" from="--7622#4" to="-2284#3"/>
    <trip id="199" type="passenger" depart="199.00" from="-17542#0" to="-14603"/>
    <trip id="200" type="passenger" depart="200.00" from="--7854" to="--4945#0"/>
    <trip id="201" type="passenger" depart="201.00" from="--8531" to="-7758"/>
    <trip id="202" type="passenger" depart="202.00" from="-4743#1" to="--3613"/>
    <trip id="203" type="passenger" depart="203.00" from="--15615" to="-1718#2"/>
    <trip id="204" type="passenger" depart="204.00" from="-1583#9" to="--8725#2"/>
    <trip id="205" type="passenger" depart="205.00" from="-5167#0" to="-4752"/>
    <trip id="206" type="passenger" depart="206.00" from="-1992#5" to="--5139#0"/>
    <trip id="207" type="passenger" depart="207.00" from="--2960" to="--11449#2"/>
    <trip id="208" type="passenger" depart="208.00" from="--3576#1" to="-15126#3"/>
    <trip id="209" type="passenger" depart="209.00" from="-5859" to="--15578#6"/>
    <trip id="210" type="passenger" depart="210.00" from="--6950#1" to="-3068#1"/>
    <trip id="211" type="passenger" depart="211.00" from="--2869#0" to="-3909"/>
    <trip id="212" type="passenger" depart="212.00" from="--9082" to="--5602#0"/>
    <trip id="213" type="passenger" depart="213.00" from="-17717#0" to="--1032#0"/>
    <trip id="214" type="passenger" depart="214.00" from="-3666#4" to="-5046"/>
    <trip id="216" type="passenger" depart="216.00" from="--2497" to="-8875"/>
    <trip id="217" type="passenger" depart="217.00" from="-10033#2" to="--1402#0"/>
    <trip id="218" type="passenger" depart="218.00" from="--3622" to="-6409"/>
    <trip id="219" type="passenger" depart="219.00" from="--8206" to="-5482#1"/>
    <trip id="220" type="passenger" depart="220.00" from="-1846#0" to="-9682"/>
    <trip id="221" type="passenger" depart="221.00" from="-13939" to="-8725#0"/>
    <trip id="222" type="passenger" depart="222.00" from="-6941#1" to="-2831"/>
    <trip id="223" type="passenger" depart="223.00" from="-3053" to="-1654#0"/>
    <trip id="224" type="passenger" depart="224.00" from="-5394#2" to="-1949#2"/>
    <trip id="225" type="passenger" depart="225.00" from="-7152#0" to="-4606#2"/>
    <trip id="226" type="passenger" depart="226.00" from="--8575" to="--6026#2"/>
    <trip id="227" type="passenger" depart="227.00" from="--3606" to="-3204"/>
    <trip id="228" type="passenger" depart="228.00" from="-3998#0" to="-1745"/>
    <trip id="229" type="passenger" depart="229.00" from="-1547#1" to="--6309#1"/>
    <trip id="230" type="passenger" depart="230.00" from="--15222" to="--6870"/>
    <trip id="231" type="passenger" depart="231.00" from="--3954#1" to="--8075#0"/>
    <trip id="232" type="passenger" depart="232.00" from="-10876#0" to="--2949"/>
    <trip id="233" type="passenger" depart="233.00" from="--3421" to="-3867"/>
    <trip id="234" type="passenger" depart="234.00" from="-2820#0" to="--14892"/>
    <trip id="235" type="passenger" depart="235.00" from="--6627" to="-1900"/>
    <trip id="236" type="passenger" depart="236.00" from="--6985#1" to="--4697"/>
    <trip id="237" type="passenger" depart="237.00" from="--7270" to="-7829#0"/>
    <trip id="238" type="passenger" depart="238.00" from="-13287" to="-3898#2"/>
    <trip id="239" type="passenger" depart="239.00" from="-6028#1" to="-4984#1"/>
    <trip id="241" type="passenger" depart="241.00" from="--5331#0" to="-4784#1"/>
    <trip id="242" type="passenger" depart="242.00" from="-5964#1" to="-8773#0"/>
    <trip id="243" type="passenger" depart="243.00" from="--7182" to="-4671#1"/>
    <trip id="244" type="passenger" depart="244.00" from="-11030" to="-2646#1"/>
    <trip id="245" type="passenger" depart="245.00" from="--3284" to="--5064"/>
    <trip id="246" type="passenger" depart="246.00" from="--7727" to="--11767"/>
    <trip id="247" type="passenger" depart="247.00" from="--5135" to="-3654#7"/>
    <trip id="248" type="passenger" depart="248.00" from="--6523#0" to="--3512"/>
    <trip id="249" type="passenger" depart="249.00" from="--8371#1" to="--2665#0"/>
    <trip id="250" type="passenger" depart="250.00" from="-1521" to="--11532"/>
    <trip id="251" type="passenger" depart="251.00" from="--6124#1" to="-2113#1"/>
    <trip id="252" type="passenger" depart="252.00" from="--11319" to="-3244#1"/>
    <trip id="253" type="passenger" depart="253.00" from="--1974" to="-14433"/>
    <trip id="254" type="passenger" depart="254.00" from="--13366" to="-10467#1"/>
    <trip id="255" type="passenger" depart="255.00" from="--3165#0" to="--8342"/>
    <trip id="256" type="passenger" depart="256.00" from="-3896#1" to="-10467#1"/>
    <trip id="257" type="passenger" depart="257.00" from="-3685#0" to="-6009#1"/>
    <trip id="258" type="passenger" depart="258.00" from="--3661" to="--1650#0"/>
    <trip id="259" type="passenger" depart="259.00" from="--10918" to="-1849#1"/>
    <trip id="260" type="passenger" depart="260.00" from="-999#3" to="--9262#0"/>
    <trip id="261" type="passenger" depart="261.00" from="-1716#2" to="-5216#1"/>
    <trip id="262" type="passenger" depart="262.00" from="-17356" to="-4792"/>
    <trip id="263" type="passenger" depart="263.00" from="-8361#3" to="--4423"/>
    <trip id="264" type="passenger" depart="264.00" from="--10961#1" to="--3246#0"/>
    <trip id="265" type="passenger" depart="265.00" from="--1862" to="-3541#1"/>
    <trip id="267" type="passenger" depart="267.00" from="-2660" to="-4998"/>
    <trip id="268" type="passenger" depart="268.00" from="--2369" to="-2718#1"/>
    <trip id="269" type="passenger" depart="269.00" from="-3596" to="--2264#2"/>
    <trip id="270" type="passenger" depart="270.00" from="-5181" to="-8972#0"/>
    <trip id="271" type="passenger" depart="271.00" from="--17192" to="--11495#0"/>
    <trip id="272" type="passenger" depart="272.00" from="--4681" to="-3629#0"/>
    <trip id="273" type="passenger" depart="273.00" from="-8714#0" to="-11007#0"/>
    <trip id="274" type="passenger" depart="274.00" from="-2986" to="--1583#0"/>
    <trip id="275" type="passenger" depart="275.00" from="-2462#2" to="-3026"/>
    <trip id="276" type="passenger" depart="276.00" from="--16771" to="-5075"/>
    <trip id="277" type="passenger" depart="277.00" from="-5876#1" to="-2590#1"/>
    <trip id="278" type="passenger" depart="278.00" from="--17814#2" to="-9557#2"/>
    <trip id="279" type="passenger" depart="279.00" from="-4389#3" to="--9111#4"/>
    <trip id="280" type="passenger" depart="280.00" from="--7603#1" to="-10195"/>
    <trip id="281" type="passenger" depart="281.00" from="--9588#7" to="--8875"/>
    <trip id="282" type="passenger" depart="282.00" from="-5852#1" to="-5828"/>
    <trip id="283" type="passenger" depart="283.00" from="--1699" to="-8904#0"/>
    <trip id="284" type="passenger" depart="284.00" from="-15966" to="-5956#1"/>
    <trip id="285" type="passenger" depart="285.00" from="-2842#0" to="-1316"/>
    <trip id="286" type="passenger" depart="286.00" from="-3347#0" to="-8999"/>
    <trip id="287" type="passenger" depart="287.00" from="--3931" to="-5619"/>
    <trip id="288" type="passenger" depart="288.00" from="-10800#1" to="-15453"/>
    <trip id="289" type="passenger" depart="289.00" from="--7724" to="-4391"/>
    <trip id="290" type="passenger" depart="290.00" from="--3918" to="-6508#0"/>
    <trip id="291" type="passenger" depart="291.00" from="-5395#0" to="--16818"/>
    <trip id="292" type="passenger" depart="292.00" from="-6543" to="--5598"/>
    <trip id="293" type="passenger" depart="293.00" from="--8353" to="-2790"/>
    <trip id="294" type="passenger" depart="294.00" from="--5842#3" to="--1170"/>
    <trip id="295" type="passenger" depart="295.00" from="-5910" to="--3950"/>
    <trip id="296" type="passenger" depart="296.00" from="--3188" to="-5452#2"/>
    <trip id="297" type="passenger" depart="297.00" from="--5189" to="-7383"/>
    <trip id="298" type="passenger" depart="298.00" from="-2704" to="--6385"/>
    <trip id="299" type="passenger" depart="299.00" from="--10453" to="-8667"/>
    <trip id="300" type="passenger" depart="300.00" from="--15657#1" to="-4235#1"/>
    <trip id="301" type="passenger" depart="301.00" from="--8906#3" to="-4848"/>
    <trip id="302" type="passenger" depart="302.00" from="-2462#2" to="-3293"/>
    <trip id="303" type="passenger" depart="303.00" from="--8961#0" to="-5342#6"/>
    <trip id="304" type="passenger" depart="304.00" from="--1603#2" to="--5095"/>
    <trip id="305" type="passenger" depart="305.00" from="-2476#0" to="--7677#1"/>
    <trip id="306" type="passenger" depart="306.00" from="-12914" to="-15059"/>
    <trip id="307" type="passenger" depart="307.00" from="-10538#1" to="-12478"/>
    <trip id="308" type="passenger" depart="308.00" from="-3558#0" to="--8490"/>
    <trip id="309" type="passenger" depart="309.00" from="-2744" to="--6185#0"/>
    <trip id="310" type="passenger" depart="310.00" from="--3644" to="--2464#0"/>
    <trip id="311" type="passenger" depart="311.00" from="--2854" to="--2423#0"/>
    <trip id="312" type="passenger" depart="312.00" from="-10720#1" to="-4942#10"/>
    <trip id="313" type="passenger" depart="313.00" from="--2657" to="--5010"/>
    <trip id="314" type="passenger" depart="314.00" from="--8813" to="-4276"/>
    <trip id="315" type="passenger" depart="315.00" from="-9169#3" to="-1763"/>
    <trip id="316" type="passenger" depart="316.00" from="--4159#4" to="--1842#1"/>
    <trip id="318" type="passenger" depart="318.00" from="--2563" to="--10746#0"/>
    <trip id="319" type="passenger" depart="319.00" from="-10693#0" to="--6301#1"/>
    <trip id="320" type="passenger" depart="320.00" from="-9075#0" to="-2005"/>
    <trip id="321" type="passenger" depart="321.00" from="-2606#2" to="--2606#1"/>
    <trip id="322" type="passenger" depart="322.00" from="-6185#0" to="-15773#0"/>
    <trip id="323" type="passenger" depart="323.00" from="-6310#1" to="-2230"/>
    <trip id="324" type="passenger" depart="324.00" from="--8432" to="-13518#1"/>
    <trip id="325" type="passenger" depart="325.00" from="--2650#2" to="--14066#0"/>
    <trip id="326" type="passenger" depart="326.00" from="-8119#1" to="-15203"/>
    <trip id="327" type="passenger" depart="327.00" from="-5216#0" to="-11125"/>
    <trip id="328" type="passenger" depart="328.00" from="--15074#1" to="-3064"/>
    <trip id="329" type="passenger" depart="329.00" from="--1363" to="--3167#0"/>
    <trip id="330" type="passenger" depart="330.00" from="-1181" to="--7621#5"/>
    <trip id="331" type="passenger" depart="331.00" from="-9791" to="--2361"/>
    <trip id="332" type="passenger" depart="332.00" from="-3973#0" to="-2695#2"/>
    <trip id="333" type="passenger" depart="333.00" from="-4591#3" to="--5147"/>
    <trip id="334" type="passenger" depart="334.00" from="-10206#3" to="-1395#3"/>
    <trip id="335" type="passenger" depart="335.00" from="--7857" to="-6713#3"/>
    <trip id="336" type="passenger" depart="336.00" from="-9665#0" to="--7666#0"/>
    <trip id="337" type="passenger" depart="337.00" from="-15157#0" to="-2777"/>
    <trip id="338" type="passenger" depart="338.00" from="-3446#3" to="-8661"/>
    <trip id="339" type="passenger" depart="339.00" from="--3095#2" to="--4862#0"/>
    <trip id="340" type="passenger" depart="340.00" from="-17798#7" to="--3355"/>
    <trip id="341" type="passenger" depart="341.00" from="--2463#1" to="--1576#0"/>
    <trip id="342" type="passenger" depart="342.00" from="--10129#0" to="-1395#3"/>
    <trip id="343" type="passenger" depart="343.00" from="-1389#0" to="--7315#0"/>
    <trip id="344" type="passenger" depart="344.00" from="--3423" to="-4054#1"/>
    <trip id="345" type="passenger" depart="345.00" from="-2744" to="-1405#1"/>
    <trip id="346" type="passenger" depart="346.00" from="-2357#0" to="-821#0"/>
    <trip id="347" type="passenger" depart="347.00" from="-4496#5" to="-3008#1"/>
    <trip id="348" type="passenger" depart="348.00" from="-17803#5" to="-8354"/>
    <trip id="349" type="passenger" depart="349.00" from="--7508#0" to="-1909"/>
    <trip id="350" type="passenger" depart="350.00" from="-16884#0" to="-7911"/>
    <trip id="351" type="passenger" depart="351.00" from="-5287" to="--1547#0"/>
    <trip id="352" type="passenger" depart="352.00" from="--2330#1" to="--7706#0"/>
    <trip id="353" type="passenger" depart="353.00" from="-3613" to="-2166"/>
    <trip id="354" type="passenger" depart="354.00" from="--4241" to="--2536#1"/>
    <trip id="355" type="passenger" depart="355.00" from="-2404" to="-3934"/>
    <trip id="356" type="passenger" depart="356.00" from="-8156#0" to="-16372"/>
    <trip id="357" type="passenger" depart="357.00" from="--9076" to="--1637"/>
    <trip id="358" type="passenger" depart="358.00" from="--12331#0" to="-1288#2"/>
    <trip id="359" type="passenger" depart="359.00" from="--4900" to="--5736#0"/>
    <trip id="360" type="passenger" depart="360.00" from="--1596" to="-8917#0"/>
    <trip id="361" type="passenger" depart="361.00" from="-5508#7" to="-2242"/>
    <trip id="362" type="passenger" depart="362.00" from="-8420" to="-9993#1"/>
    <trip id="363" type="passenger" depart="363.00" from="-1986#3" to="--6157#1"/>
    <trip id="364" type="passenger" depart="364.00" from="--1236" to="-4827#1"/>