<?xml version="1.0" encoding="UTF-8"?>

<!-- generated on 2025-04-09 13:34:51.123731 by randomTrips.py v1_22_0+0002-63e50f52594
<configuration>
    <net-file value="MyNetwork.net.xml"/>
    <output-trip-file value="MyTrips.trips.xml"/>
    <vehicle-class value="passenger"/>
    <fringe-factor value="10"/>
    <validate value="True"/>
</configuration>
-->

<!-- generated on 2025-04-09 13:34:09 by Eclipse SUMO duarouter Version 1.22.0
<duarouterConfiguration xmlns:xsi="http://www.w3.org/2001/XMLSchema-instance" xsi:noNamespaceSchemaLocation="http://sumo.dlr.de/xsd/duarouterConfiguration.xsd">

    <input>
        <net-file value="MyNetwork.net.xml"/>
        <route-files value="MyTrips.trips.xml"/>
    </input>

    <output>
        <output-file value="routes.rou.xml"/>
        <alternatives-output value="NUL"/>
    </output>

    <time>
        <begin value="0"/>
        <end value="3600"/>
    </time>

    <report>
        <no-warnings value="true"/>
        <ignore-errors value="true"/>
        <no-step-log value="true"/>
    </report>

</duarouterConfiguration>
-->

<routes xmlns:xsi="http://www.w3.org/2001/XMLSchema-instance" xsi:noNamespaceSchemaLocation="http://sumo.dlr.de/xsd/routes_file.xsd">
    <vType id="passenger" vClass="passenger"/>
    <vehicle id="0" type="passenger" depart="0.00">
        <route edges="-16373 -16374 --16374 --16373 --5217#4 --5217#3 --5217#2 --5217#1 --5217#0 -13681#2 -13681#3 -13681#4 -13476 -13473 -13027#1 -1158 -13897 -13901 -11835 -13899 -13900 -7786 -5119 -13907 -10571 -13906 -874 -11612 -5116 -11607 -4300 -4299 -13912 -11614 -13910 -16428 -16429 -13909 -11623 -11622 -2642 -2641#0 -2641#1 -2641#2 -2641#3 -2641#4 -2970 -10271 -10019#7 -10019#8 -10019#9 -986 -10270 -7145 -990 -989 -4811 -15551 -12999#5 -15548 -1618 -13103#7 -13103#0 -13103#1 -2629 -2630 -2631 -12925#0 -6890 -11132 -11135 -11133 -1616 -2623 -7886 -2624 -16636 -5132 -7887 -5566 -6914 -3571 -10259 -16181 -14228 -16172 -5762 -932 -9389#0 -9389#1 -16482 -16176 -16177 -16178 -16179 -1128#0 -1128#1 -1128#2 -3172#1 -3172#2 -3172#3 -3171#0 -3171#1 --8017 -8018#0 -8018#1 -7796 -7873 -9792 -9793 -10174 -5877 -9791 -11605#1 -11606 -5845#2 -5845#3 -16858 -16861 -1129#0 -1129#1 -1129#2 -1129#3 -1129#4 -1129#5 -1129#6 -6824#1 -6823 -3428#0 -3428#1 --3429#6 --3429#5 --3429#4 --3429#3 --3429#2 --3429#1 --3429#0 -3430#0 --1147"/>
    </vehicle>
    <vehicle id="1" type="passenger" depart="1.00">
        <route edges="--4013#1 --8429#3 --8429#2 --8429#1 --8429#0 --17804#12 --17804#11 --17804#10 --17804#9 --17804#8 --17804#7 --17804#6 --17804#5 --17804#4 --17804#3 --17804#2 --17804#1 --17804#0 -17806#18 -17806#19 -17806#20 -17806#21 -17806#22 -17806#23 -17806#24 -17806#25 -17806#26 -17806#27 -17806#28 -17806#29 -17806#30 -17805#0 -17805#1 -17805#2 -17805#3 -17805#4 -17809#0 -17809#1 -17809#2 -17809#3 -17807#0 -17807#1 -17807#2 -17807#3 -17807#4 -17807#5 -17807#6 -17807#7 -17807#8 -17802#0 -17802#1 -17802#2 -17802#3 -17802#4 -17796#2 -17796#3 -17796#4 -17796#5 -17796#6 -17796#7 -17796#8 -17796#9 -17796#10 -17826#5 -17826#6 -17826#7 -17826#8 -17826#9 -17826#10 -17829#0 -17829#1 -17829#2 -17829#3 -17829#4 -17829#5 -17829#6 -17829#7 -17829#8 -17829#9 -17819#0 -17819#1 -17819#2 -17819#3 -17821#0 -17821#1 -17821#2 -17821#3 -17821#4 --2983#1 --2983#0 -5876#0 -5876#1 -5876#2 -5876#3 -5876#4 -5876#5 -10909 -17785#0 -17785#1 -17789#0 -17789#1 -17783#0 -17783#1 -17783#2 -17783#3 -17791#0 -17791#1 -17791#2 -17791#3 -17791#4 -17777#0 -17777#1 -17777#2 -17776 -17780#0 -17780#1 -17780#2 -17780#3 -17780#4 --17775#2 --17775#1 --17775#0 --17782#14 --17782#13 --17782#12 --17782#11 --17782#10 --17782#9 --17782#8 --17782#7 --17782#6 --17782#5 --17782#4 --17782#3 --17782#2 --17782#1 --17782#0 --17749#11 --17749#10 --17749#9 --17749#8 --17749#7 --17749#6 --17749#5 --17749#4 --17749#3 --17749#2 --17749#1 --17749#0 --17746 --17745#1 --17745#0 --17747 --17750#1 --17750#0 --17773#1 --17773#0 --17774#1 --17774#0 --17772#2 --17772#1 --17772#0 --17748#4 --17748#3 --17748#2 --17748#1 --17748#0 -17759#0 -17759#1 -17759#2 -17759#3 -17759#4 -17759#5 -17759#6 -17759#7 -17759#8 -17759#9 -17759#10 -17759#11 -17759#12 -17759#13 -17759#14 -17758#0 -17758#1 -17758#2 -17758#3 -17758#4 -17758#5 -17758#6 -17758#7 -17758#8 -17758#9 --3561 -14091 -14090 -14229 -16172 -16173 -16169 -3562 -10261 -6795 -12706 --933 -931 -16633 -16632#0 -16632#1 -16632#2 --7888 -16631 -13274 -7871 -16630 -5881#0 -5881#1 -5881#2 -7154 -8055 -8056 --7152#4 --7152#3 --7152#2 --7152#1 --7152#0 -10889 -7151#0 -7151#1 -13774 -10886 --14831 --11319 --14830#1 --14830#0 --14299 --17705 --7150 -13266 -13265 -13264 -7158 -14083 -10740#0 -10740#1 -7159 -16786 -14084 -6738 -10732 -10733#0 -10733#1 -10733#2 -1379#1 -1379#2 -1380 -13629 -16247 -16248 -16245 -7295 -9259#0 -9259#1 -8986 -8987#0 -8987#1 -7866#0 -7866#1 -7866#2 -5718#0 -5718#1 -14048 -9421 -7312 -7311#0 -9844 --8915#1 --8915#0 --2905 --2945 -1971 -10079#0 -10079#1 -6745 -15161 -15160 -15159#0 -15159#1 -7194#0 -7194#1 -7335 -15158 -15157#0 -15157#1 -1053#0 -1053#1 -11166 -11167 -1007 -15718#0 -15718#1 -9802 -10936 -15163 -6292 -4505 -11172 -11171 --11176 --4446#1 --4446#0 -12209#3 -12209#4 -12209#0 --14823#1 --14823#0 --1004 -7514#0 -7514#1 -7514#2 -7514#3 -7509#0 -7509#1 --10939#2 --10939#1 --10939#0 -10956 -16145#3 -16145#4 -7505 --10838#1 --10838#0 -8804 -2541 -12618 -2539 --8800 --6453#2 --6453#1 --6453#0 --10135 --8420 --10134 --10133 --10136 --10137 --10132 --5113"/>
    </vehicle>
    <vehicle id="2" type="passenger" depart="2.00">
        <route edges="-3371#0 -3372 -4801#2 --3381#1 --3381#0 --3156#2 --3156#1 --3156#0 --9112#1 --9112#0 --14024#1 --14024#0 --5219#2 --5219#1 --5219#0 -5220#0 -5220#1 --8981#3 --8981#2 --8981#1 --8981#0 --14043 -3655 --3632#3 --3632#2 --3632#1 --3632#0 --16704 --16703 --15407 -2869#2 -3497 -3496 -3628#0 -3628#1 -3628#2 -3628#3 -3628#4 --3624 -3625#0 -3625#1"/>
    </vehicle>
    <vehicle id="3" type="passenger" depart="3.00">
        <route edges="-6977#0 --6977#0 -1391#2 -1391#3 -1391#4 -1391#5 -1149 -16155 -16156 -16157 -16153 -1003 -13543 -6714 -5122#0 -5122#1 -10859 -7468 -13253#0 -13253#1 -7469 --10844 -10856 --10848 --10849 --10879 --10847 -10862 --7459#1 --7459#0 -7465#1 -7465#2 --11009#2 --11009#1 --11009#0 --7466 --10895#1 --10895#0 -9654 -9653#0 -9653#1 -9655#0 -9655#1 -9656 --5111#1 --5111#0 -10876#0 -10876#1 -10876#2 -10876#3 -10876#4 -10876#5 -15213#0 -15213#1 --8824#5 --8824#4 --8824#3 --8824#2 --8824#1 --8824#0 --8825#1 --8825#0 --1228#1 -1247#0 -1773 --7501#1 --7501#0 --1227 -16232 -16233 -13210 -16234 --14071#2 --14071#1 --14071#0 --7789#6 --7789#5 --7789#4 --7789#3 --7789#2 --7789#1 --1687#1"/>
    </vehicle>
    <vehicle id="4" type="passenger" depart="4.00">
        <route edges="--7397#2 --7397#1 --7397#0 -16298#1 -16298#2 --9462#1 --9462#0 -16299#3 -16299#0 -16299#1 --9463#2 --9463#1 --9463#0 --9460 --6941#2 --6941#1 --6941#0 --9461 --8932 --6940#1 --6940#0 --17717#1 --17717#0 -6709#0 -6709#1 -16368 --6464 --7396 --16385 --7813 --16386 --16367 --11984 --8931#5 --8931#4 --8931#3 --8931#2 --8931#1 --8931#0 --6467#1 --6467#0 --17328 -16256#0 -16256#1 -6712 --7440 -16156 -16157 -16153 -16154 -1019 -1391#1 -6977#0 -6977#1 -10843 -10845#0 -10845#1 -10845#2 -10845#3 -7423 -7424 --9270#1 --9270#0 --9572#2 --9572#1 --9572#0 --7508#4 --7508#3 --7508#2 --7508#1 --7508#0 -16145#4 -16145#5 -16145#6 -16145#7 -16145#8 -10928 -10926#0 -10926#1 -7504 -13986 -8803 -10930 -13140#0 -13140#1 -13139 -13138#0 -13138#1 -7534 -8801 -10924#0 -10924#1 -10924#2 -10924#3 -10922 -10968 -10985#0 -10985#1 -10966 -10982#0 -10982#1 -10969#0 -10969#1 -10972 -10970 -10967 -10978#0 -10978#1 -10971 -10984#0 -10984#1 -10984#2 -10974 -13137 -8692 -13136 -10976 -10973#0 -10973#1 -4433 -2109 -10806 -10958 -11510 -16121 -16122 -16123 -11504 --6503 -10256#0 -10256#1 --10257#1 --10257#0 --15972 --11478 --15971 --2333 -6504 -9834#0 -9834#1 -10303 -9841 -9839 --11482 --5865#1 --5865#0 --15983 --11470#4 --11470#3 --11470#2 --11470#1 --11470#0 -11477 -16186 -16187 -2131 -16183 -11475 -2132 -11476 -16191 -11471 --1213#2 --1213#1 --1213#0 -5539#0 -5539#1 -16219 -16220 -16221 -7747#0 -7747#1 -7747#2 -15172#1 -15172#2 -15172#3 -15172#4 --6700 --6701 -4871 -9333 -9334 -9335#0 -9335#1 -4875#0 -4873 -8995 -13996 --6698 --8167#3 --8167#2 --8167#1 --8167#0 -5516#0 -5516#1 -5516#2 -5516#3 -5516#4 --11813 --11812"/>
    </vehicle>
    <vehicle id="5" type="passenger" depart="5.00">
        <route edges="--3248#1 --3248#0 --3247#0 -3249 --3195#3 --3195#2 --3195#1 --3195#0 --10905 --3194 --6345#2 --6345#1 --6345#0 -10906 -17785#0 -17785#1 -17789#0 -17789#1 -17783#0 -17783#1 -17783#2 -17783#3 -911 -912#0 -912#1 -14627 -6669#1 -6669#2 -6654#0 -6654#1 -6654#2 -6918#0 -6918#1 -6918#2 -5766 -5765 -6919 -12968#7 -12968#8 -12968#9 -7879 -7783 -7079 -10819 -16491 -7077 -7875 -7876 -7116#0 -7116#1 -14572 -14571 -4432 -9395 -14136 -14135 -14570 -17391 -7117#0 -7117#1 -11018 -11020#0 -11020#1 -10818 -11019 -7132 -10586#0 -10586#1 -7139 -7217 -12965 -12964 -12963 -7214#0 -7214#1 -7213#0 -7213#1 -7213#2 -7213#3 -12241 -7223 -8720 -7225 -7228#4 -14131 -7227 -7226 -15272#0 -15272#1 -15273 --10077 -12157 -15271 -12159 --12160 --11073 --10078 --10504 --10505 --10511 --11074 --10510 --10503 --6957 --10509 --10506 --10507#1 --10507#0 --10508 --7269 -16259 -16239 -16238 -16139 -16132 -7636 -5779 -11078 -11077#0 -11077#1 -9607#0 -9607#1 -9607#2 -9607#3 -9607#4 -8898#0 -8898#1 -8898#2 -7373#0 -7373#1 -15703 -15704 -16575#0"/>
    </vehicle>
    <vehicle id="6" type="passenger" depart="6.00">
        <route edges="--11307#1 --11307#0 --3628#0 --3496 --3497 --2869#2 --2869#1 --2869#0 -2865#0 --3273 -906#3 -906#4 -906#0 --3540 --3539 --908 -905#4 -905#5 -905#0 -905#1 -905#2 -6019 -13882 -13600 -13881 -13880 -3651 -3645 -1246 -13599 -13878 -13879 -13905 -7746 -13904 -13903 -13902 -13898 -13901 -11835 -13899 -13900 -7786 -5119 -13907 -10571 -13906 -874 -11612 -5116 -11607 -4300 -4299 -13912 -11614 -13910 -16428 -16429 -13909 -11623 -11622 -2642 -2641#0 -2641#1 -2641#2 -6624 --15319#3 --15319#2 --15319#1 --15319#0 --8914#2 --8914#1 --8914#0 --8903 --7002#3 --7002#2 --7002#1 --7002#0 -6623 -10338#0 -10338#1 -4413#0 -4417#0 -4417#1 -4417#2 -6194#0 --6194#0 --4417#2 --4417#1"/>
    </vehicle>
    <vehicle id="7" type="passenger" depart="7.00">
        <route edges="-17108#1 --4566#1 --4566#0 --4558#2 --4558#1 --4558#0 --7686#1 --7686#0 --6291 --1270#1 --1270#0 -1935#0 -1935#1 -2682#0 -2682#1 -2682#2 -6773 -4713#0 -4713#1 -4713#2 -10125 -4727#0 -4727#1 -4720#0 -4720#1 -11322 -13038#2 -13038#3 -13038#4 -13038#5 -6325 -13072#0 -13072#1 -1938#0 -1938#1 -12547#0 -12547#1 -6866 -6730 -8456 -8455 -4068 -2225 -4067 -9258 -9930 -13628 --1380 -1379#3 -1381 -8068 -8069 -6096 -6086 -6487 -6486 -14148 -7208#1 -10580 --15677 --10582 -10579 -8683#0 -8683#1 -5660#0 -5660#1 -8944 -7212#1 -5658 -11816 -11815 -10249 -10577 -15539 -12916#0 -12916#1 -12915#0 -12915#1 --4562#4 --4562#3 --4562#2 --4562#1 --4562#0 -9459 -13778 -9410 --6404#1 --6404#0 --12777 --15940 --15938 --13322 --15939 -14851 -15941 -15153#1 -15153#2 -15153#3 -15152 -15917#0 -15917#1 -15918 -14848#0 -14848#1 -9535 -5563 -8701 -9537 -10687 -10685 --9530 --6573#1 --6573#0 --16509 -6383 -9523 -15951 -15956 -15952 -9522 -6381 -6382 -9529 -9520 -9519#0 -9519#1 -7862#0 -7862#1 -7862#2 -4099#0 -4099#1 -4099#2 -4099#3 -4099#4 -4099#5 -4099#6 -6305 -6304 --11427#2 --11427#1 --11427#0 -14406 -1930#0 -1930#1 --14405 --1929#2 --1929#1 --1929#0 --8656#1 -1912#0 -1912#1"/>
    </vehicle>
    <vehicle id="8" type="passenger" depart="8.00">
        <route edges="--3279#1 --3279#0 --3278 --14782#2 -14782#2 -3278 -3279#0 -3279#1 -3279#2 -12985 -1055 -12989 -11996 -1059#0 -1059#1 -1059#2 -1059#3 -1059#4 -11994 -12991 --10918 -10919 -6655#3 -6655#4 -6655#5 -6655#6 -6655#7 -10916 --6664 -17374#0 -17374#1 -6669#0 -6669#1 -6669#2 -6654#0 -6654#1 -6654#2 -6918#0 -6918#1 -6918#2 -5766 -5765 -6919 -12968#7 -12968#8 -12968#9 -7879 -7783 -7079 -10819 -16491 -7077 -7875 -7876 -7116#0 -7116#1 -14572 -14571 -4432 -9395 -14136 -14135 -14570 -17391 -7117#0 -7117#1 -11018 -11020#0 -11020#1 -10818 -11019 -4494#0 -4494#1 -4496#0 -4496#1 -4496#2 -4496#3 -4496#4 -4496#5 -4496#6 -4496#7 -4496#8 -4496#9 -16593#0 -16593#1 -16593#2 -4452 -4451#0 -4451#1 -12669 -10568#0 -10568#1 -10568#2 -12036 -13264 -7158 -14083 -10740#0 -10740#1 -7159 -16786 -14084 -6738 -10732 -10733#0 -10733#1 -10733#2 -1379#1 -1379#2 -1380 -13629 -16247 -16248 -16245 -7295 -9259#0 -9259#1 -8986 -8987#0 -8987#1 -7866#0 -7866#1 -7866#2 -5718#0 -5718#1 -14048 -9421 -7312 -7311#0 -7311#1 -7966#0 -2427"/>
    </vehicle>
    <vehicle id="9" type="passenger" depart="9.00">
        <route edges="-5039 --5050#1 --5050#0 --14692#0 --14691 --8848#1 --8848#0 -14690#0 -14690#1 -1207 -10984#1 -10984#2 -10974 -13137 -8692 -13136 -10976 -10973#0 -10973#1 -4433 -2109 -10806 -10958 -11510 -16121 -16122 -16123 -16124 -16115 -13130 -16116 -8527 --5894#2 --5894#1 --5894#0 --5891 --5838 -1175 -5895 -5892#0 -5892#1 -5892#2 -10351#0 --10352#0"/>
    </vehicle>
    <vehicle id="10" type="passenger" depart="10.00">
        <route edges="-4983#1 -4983#2 --4983#2 --4983#1 --4983#0 --4644#0 --4643#1 --4643#0 --4637 -13040#0 -13040#1 --9301#1 --9301#0 --2754#2 --2754#1 --2754#0 -9304#5 -9304#6 --5987 --9311 --2758 -12948#2 -12948#3 -6552 -12949#1 -12949#2 -12949#3 -12949#4 -6551 -12950#1 -12950#2 -12950#3 -5946 -9370 -6212#0 -6212#1 -6212#2 -6212#3 -13554 -13553#0 -13553#1 -12953 -12952#0 -12952#1 -12952#2 -962 -13885 -13603 -14862 -3500 -13884 -13883 -3499 -13882 -13600 -13881 -13880 -3651 -3645 -1246 -13599 -13878 -13879 -13905 -7746 -13904 -13903 -13902 -13898 -13901 -11835 -13899 -13900 -7786 -5119 -13907 -10571 -13906 -874 -11612 -5116 -11607 -4300 -4299 -13912 -11614 -13910 -16428 -16429 -13909 -11623 -11622 -2642 -2641#0 -2641#1 -2641#2 -2641#3 -2641#4 -2970 -10271 -10019#7 -10019#8 -10019#9 -986 -10270 -7145 -990 -989 -4811 -15551 -12999#5 -15548 -1618 -13103#7 -13103#0 -13103#1 -2629 -2630 -2631 -12925#0 -6890 -11132 -3048 -14099 -14098 -14087#0 -14087#1 -14491 -14492 -14620 -8952#0 -8952#1 -8952#2 -14232 -12902 -12906 -12905 -14230 -8198 --10262 --14231 --3669 --3078 -3079 -6523#0 -6523#1 -6523#2 -16167 -16168 -3940 -6521#0 -6521#1 -6521#2 -6521#3 -8193#0 -8193#1 -8193#2 -8193#3 -8193#4 -8193#5 -8193#6 -14278#0 -14278#1 -14277 -3891#0 -3891#1 -3891#2 -3891#3 -3891#4 -3891#5 -14045#0 -3910 -3939#1 -3911#0 -3911#1 -3913#1 -3917#0 -3917#1 -3921#0 -3921#1"/>
    </vehicle>
    <vehicle id="11" type="passenger" depart="11.00">
        <route edges="--5189 --2586#0 --9806#2 --9806#1 --9806#0 --4813#3 --4813#2 --2560#2 --2560#1 --2560#0 -2561#0 -2561#1 -8855#7 -8855#8 -14860 -9284#0 -1691 -16234 -16235 -16236 -16237 -1227 -5785#0 -5785#1 -16231 -1228#0 -1228#1 -8825#0 -8825#1 -8824#0 -8824#1 -8824#2 -8824#3 -8824#4 -8824#5 -17541 -1251 -1752#0 -1752#1 -17543 -9673 -12769 -5111#0 -5111#1 --9656 --9655#1 --9655#0 --9653#1 --9653#0 --9654 -10895#0 -10895#1 -7466 -11009#0 -11009#1 -11009#2 -7465#3 -7465#0 -7459#0 -7459#1 -10863 -10849 -10848 -10855 -10844 -10850 -16255 -16160 -16158 -6490#0 -6490#1 -10858 --5122#1 --5122#0 --6714 --13543 --1003 -16154 -5121 -16155 -7440 -6466 -16256#3 -16256#4 -17328 -6467#0 -6467#1 -8931#0 -8931#1 -8931#2 -8931#3 -8931#4 -8931#5 -11984 -16367 -16386 -7813 -16385 -7396 -6464 --16368 --6709#1 --6709#0 -17717#0 -17717#1 -6940#0 -6940#1 -8932 -9461 -6941#0 -6941#1 -6941#2 -9460 --9464#1 --9464#0 --11435#5 --11435#4 --8422#1 --8422#0 -1155#5 -1155#0 --9596 --1156 -2077#3 -6303#0 --3340#1 --3340#0"/>
    </vehicle>
    <vehicle id="12" type="passenger" depart="12.00">
        <route edges="-8668#1 -8668#2 -8668#3 -8668#4 -8668#5 -8668#6 -8668#7 -8668#8 -8668#9 -8668#10 -8668#11 -14073#0 -14073#1 -14074#0 -14074#1 -14493 -14802 --9461 --8932 --6940#1 --6940#0 --17717#1 --17717#0 -6709#0 -6709#1 -16368 --6464 --7396 --16385 --7813 --16386 --16367 --11984 --8931#5 --8931#4 --8931#3 --8931#2 --8931#1 --8931#0 --6467#1 --6467#0 --17328 -16256#0 -16256#1 -6712 --7440 -16156 -16157 -16153 -16154 -1019 -1391#1 -6977#0 -6977#1 -10843 -10845#0 -10845#1 -10845#2 -10845#3 -7423 -7424 --9270#1 --9270#0 --9572#2 --9572#1 --9572#0 --7508#4 --7508#3 --7508#2 --7508#1 --7508#0 -16145#4 -16145#5 -16145#6 -16145#7 -16145#8 -10928 -10926#0 -10926#1 -7504 -13986 -8803 -10930 -13140#0 -13140#1 -13139 -13138#0 -13138#1 -7534 -8801 -10924#0 -10924#1 -10924#2 -10924#3 -10922 -10968 -10985#0 -10985#1 -10966 -10982#0 -10982#1 -10969#0 -10969#1 -10972 -10970 -10967 -10978#0 -10978#1 -10971 -10984#0 -10984#1 -10984#2 -10974 -13137 -8692 -13136 -10976 -10973#0 -10973#1 -4433 -2109 -10806 -10958 -11510 -16121 -16122 -16123 -11504 --6503 -10256#0 -10256#1 --10257#1 --10257#0 --15972 --11478 --15971 --2333 -6504 -9834#0 -9834#1 -10303 -9841 -9839 --11482 --5865#1 --5865#0 --15983 --11470#4 --11470#3 --11470#2 --11470#1 --11470#0 -11477 -16186 -16187 -2131 -16183 -11475 -2132 -11476 -16191 -11471 --1213#2 --1213#1 --1213#0 -5539#0 -5539#1 -16219 -16220 -16221 -7747#0 -7747#1 -7747#2 -15172#1 -13383 -13067#0 -13067#1 -6483#0 -6483#1 -6483#2 -13374#4 -13373 -10255#3 -10255#4 -13376 -13377#4 -13377#5 -10275 -7750#3 -7750#4 -7750#5 -7750#6 -7750#7 -7750#8 -7750#9 -956 -5425 -9951#1 -5438#1 -5438#2 -5438#3 -5438#4 -5438#5 -954 -9947#0 -9947#1 -3367#1 -3367#2 -5445 -5444#4 -5444#0 -8869 -8867#4 -8870 -13707#4 -8524 --13706 --8753"/>
    </vehicle>
    <vehicle id="13" type="passenger" depart="13.00">
        <route edges="--16012 --4222#3 --4222#2 --4222#1 --4222#0 -4221#0 -4221#1 -4221#2 -12810 -3584 --3869#3 --3869#2 --3869#1 --3869#0 --3769 --3078 -3079 -6523#0 -6523#1 -6523#2 -16167 -16168 -3940 -6521#0 -6521#1 -6521#2 -6521#3 -8193#0 -8193#1 -8193#2 -8193#3 -8193#4 -8193#5 -8193#6 -14278#0 -14278#1 -14277 -3891#0 -3891#1 -3891#2 -3891#3 -3891#4 -3891#5 -14045#0 -14045#1 -14045#2 -16418 -8737 --3933#2 --3933#1 --3933#0 -3702#0 -3702#1 -3702#2 -3702#3 -3702#4 -3702#5 -3702#6 -3702#7 -3702#8 -6835 -6836 --5255 --8985 --6033 --6032 --3299 -12981 -12982 --3298 --11952 --3281 --14221 --3280 --15082 --14222 -1057 -12985 -1055 -12989 -11996 -1059#0 -1059#1 -1059#2 -1059#3 -1059#4 -11994 -12991 -12990 -3202 -3203 -3204 -3205#0 -3205#1 -7897 -17801#0 -17801#1 -17801#2 -17801#3 -17801#4 -17801#5 -17801#6 -17799#0 -17799#1 -17799#2 -17799#3 -17799#4 -17799#5 -17799#6 -17799#7 -17799#8 -17799#9 -17799#10 -17799#11 -17799#12 -17799#13 -17799#14 -17799#15 -17797#0 -17797#1 -17797#2 -17797#3 -17797#4 -17797#5 -17797#6 --17797#6 --17797#5 --17797#4 --17797#3 --17797#2 --17797#1 --17797#0 --17799#15 --17799#14 --17799#13 --17799#12"/>
    </vehicle>
    <vehicle id="14" type="passenger" depart="14.00">
        <route edges="-5801 -8074 -10338#1 -4413#0 -4413#1 -4415 -4456 -8739 -8738#0 -8738#1 -11846 -6613 -6614#0 -6614#1 -5126 -8693#0 -8693#1 -5976 -10019#9 -986 -10270 -7145 -990 -989 -4811 -15551 -12999#5 -12999#0 -12999#1 -985#0 -985#1 -985#2 -985#3 -985#4 -985#5 -5130 -12943#2 -983 -5131 --7175 --14593 --981 -8684#0 -8684#1 -8684#2 --15184 -15803 -15185#5 -15185#6 -15804 --15187 --15186#3 --15186#2 --15186#1 --15186#0 --17355 --15897#3 --15897#2 --15897#1 --15897#0 --5903#1 --5903#0 -13267 -13266 -13265 -13264 -7158 -14083 -10740#0 -10740#1 -7159 -16786 -14084 -1382 -14085#0 -14085#1 -13841#0 -13841#1 -13841#2 -13841#3 -6488#0 -6488#1 -10090 -13262 -15778 -971 -9453#0 -9453#1 -9928#0 -9928#1 -9928#2 -12930 -11540 -14596 -17358 -13112 -13111 -16791 -926 -11539 --15779 -15781 -15957 -15784 -10075 -12161 -12162 -15270#1 -12158 -10077 -10076 -15274 --7226 --7227 --14131 -7228#5 -7228#0 -10531 -10532 -12250#0 -12250#1 -7784#0 -7784#1 --7248 --13506 --4646 --4098#1 --4098#0 --11428 --7244 -1000 -4167 -10109 -12482 --10110 --1932 --10111 --7799#4 --7799#3 --7799#2 --7799#1 --7799#0 -6374 -11425#0 -11425#1 -11425#2 -11425#3 -10113 -6375 -10112#0 -10112#1 -10112#2 -10112#3 -11435#0 -11435#1 -11435#2 -11435#3 -11435#4 -11435#5 -9464#0 -9464#1 -9463#0 -9463#1 -9463#2 -16299#2 -16299#3 -16299#0 --9293#3 --9293#2 --9293#1 --9293#0 --9295#1 --9295#0 --9294#8 --9294#7 --9294#6 --9294#5 --9294#4 --9294#3 --9294#2 --9294#1 --9294#0 --9297#1 --9297#0 --1830 -11467 --1831 --8880 --11465 --8879#9 --8879#8 --8879#7 --8879#6 --8879#5 --8879#4 --8879#3 --8879#2 --8879#1 --8879#0 --4120 -1481#0 -1481#1 -1482#4 --8064 --11459 --8063 --9657 -13663#2 -13663#3 -13664 -13662#0 -13662#1 --8371#2 --8371#1 --8371#0 -8444#4 -8444#0 -8444#1 -8444#2 --9439#1 --9439#0 --10119 --2112 -9452 -13079 -14256 -13078 -972 -13003#0 -2650#0 -2650#1 -2650#2"/>
    </vehicle>
    <vehicle id="15" type="passenger" depart="15.00">
        <route edges="-5010 -7547#1 -6753#4 -6753#5 -6753#6 -12792 -13735 -9285#1 -9285#2 -9285#3 -9285#4 -1774 -9284#6 --14860 --8855#8 --8855#7 --8855#6 --8855#5 --8855#4 --8855#3 --8855#2 --8855#1 --8855#0 --14859#1 --14859#0 --2555#4 --2555#3 --2555#2 --2555#1 --2555#0 -2573 -13168 -13167 -2574 -15222 -16261 --14070 --13641#2 --13641#1 --13641#0 --14069#1 --14069#0 --13642 --13987 -5203 --9100#1 --9100#0 -9098 --9111#5 --9111#4 --9111#3 --9111#2 --9111#1 --9111#0 --4800#1 --4800#0 --9112#1 --9112#0 --14024#1 --14024#0 --5219#2 --5219#1 --5219#0 -5220#0 -5220#1 -5220#2 --3407 -13180 --3406#3 --3406#2 --3406#1 --3406#0 -13179 -13178#0 -3403#0 -6575 -6888#0 -6888#1 --15563#1 --15563#0 --5166#4 --5166#3 --5166#2 --5166#1 --5166#0 -5234#6 -5234#0 -5234#1 -7754 -7750#5 -7750#6 -7750#7 -7750#8 -7750#9 -7750#10 -7750#11 -1243 -11121 -13877 -13878 -13879 -13905 -7746 -13904 -13903 -13902 -13898 -13901 -11835 -13899 -13900 -7786 -5119 -13907 -10571 -13906 -874 -11612 -13913 -875 -4304 -13979 -1090 -13014#8 -13014#9 -13014#0 -13014#1 -13014#2 -2643 -12471 -4366"/>
    </vehicle>
    <vehicle id="16" type="passenger" depart="16.00">
        <route edges="-10737#1 -5153#1 -7156#0 -7156#1 -10738 -930 -1373#0 -1373#1 -13522#1 -13522#2 -13520 -1394#0 -1394#1 -1394#2 -1394#3 -1394#4 -1394#5 -1394#6 -6088 -6094#0 -6094#1 -6094#2 -10735 -6738 -10732 -10733#0 -10733#1 -10733#2 -1379#1 -1379#2 -1380 -13629 -16247 -16248 -16245 -7295 -9259#0 -9259#1 -8986 -8987#0 -8987#1 -7866#0 -7866#1 -7866#2 -7866#3 -6865 -7033 -2226 -9418#0 -9418#1 -9418#2 -5720 -7779#0 -7779#1 -7779#2 -7779#3 -7779#4 -16061 -16062 -6763 -16063 -2180#0 -2180#1 --2229#1 --2229#0 --9814#1 --9814#0 -9815#0 -9815#1 -9815#2 -9815#3 --4109#3 --4109#2 --4109#1 --4109#0 -16152#2 --11527#1 --11527#0 --11508 --11505#6 --11505#5 --11505#4 --11505#3 --11505#2 --11505#1 --11505#0 -11506 -16116 -16117 -16118 -16119 -16120 -16121 -16122 -16123 -11504 --6503 -10256#0 -10256#1 --10257#1 --10257#0 --15972 --11478 --15971 --2333 -6504 -9834#0 -9834#1 -10303 -9841 -9839 --11482 --5865#1 --5865#0 --15983 --11470#4 --11470#3 --11470#2 --11470#1 --11470#0 -11477 -16186 -16187 -2131 -16183 -11475 -2132 -11476 -16191 -11471 --1213#2 --1213#1 --1213#0 -5539#0 -5539#1 -16219 -16220 -16221 -7747#0 -7747#1 -7747#2 -15172#1 -13383 -13067#0 -13067#1 -6483#0 -6483#1 -6483#2 -13374#4 -13373 -10255#3 -10255#4 -13376 -13377#4 -13377#5 -10275 -7750#3 -7750#4 -7750#5 -3653 -3648 -3649 -13933 -3650 -13931 -13932 -13601 -13930 -3498 -13929 -13928 -13558 -13927 -3286 -13925 -13926 -13552#1 -12951 -6212#0 -3471#0 -3471#1 -3471#2 -3471#3 -3471#4 -3471#5 -3474#1 -3474#2 -3474#3 -3472#0 -3472#1 -10625 -9227#0 -9227#1"/>
    </vehicle>
    <vehicle id="17" type="passenger" depart="17.00">
        <route edges="--5839#1 --5839#0 -4389#5 --6546 -6543 -14264 --4388 --4387 --8666 -9866 -13001#0 -9865 -13002#3 -13002#4 -13002#5 -4411 -12416#0 -12416#1 -12416#2 -6387 -8691#2 -8691#3 -8691#4 -4457 -7002#0 -7002#1 -7002#2 -7002#3 -8903 -8914#0 -8914#1 -8914#2 -15319#0 -15319#1 -15319#2 -15319#3 -6626 -2641#4 -2970 -10271 -10019#7 -10019#8 -10019#9 -986 -10270 -7145 -990 -989 -4811 -15551 -12999#5 -15548 -1618 -13103#7 -13103#0 -13103#1 -2629 -2630 -2631 -12925#0 -6890 -11132 -11135 -11133 -1616 -2623 -7886 -2624 -16636 -5132 -7887 -5566 -6915#0 -6915#1 -6915#2 -12706 --933 -931 -16633 -16632#0 -8644 -13278 -13277 -13276 -1285 -14106 -2696#0 -2696#1 -2620#0 -2620#1 -2620#2 -14499 -14501#1 -14500 -14502#1 -14502#2 -14498 -14503#0 -14503#1 -14504#0 -14504#1 -7936 -5878#1 -5878#2 -7120 -7935#0 -7935#1 -6445 -7121 -6447 -14138 -4432 -7112 -10290#0 -10290#1 -10290#2 -9394#4 -7162 -10599#0 -10599#1 -10649#0 -10649#1 -10651#0 -10651#1 -10651#2 -10651#3 -10295 -8686#4 -8686#5 -8686#6 -8686#7 -8686#8 -8686#9 -7167 -6972#0 --9882#1 --9882#0 --943#1 --943#0 -6592#0 -6592#1 -6592#2 -6592#3 -6607 -6605 -6595 -9515 -9749 -9752 -9767 -5557 -9766 -9753 -9765 -6897 -8061 -6513 -10267 -13968 -16210 -13967 -6514 -16204 -16205 -16206 -7781 -13960 -12348 -8436 -15865 -13972 -13971#0 -13971#1 -13970 -13351#0 -13351#1 -15866 --1934 --13966 --13965 --12401 --14793 --14067 --13693 -5323 --10409#1 --2026#5 --2026#4 --2026#3 --2026#2 --2026#1 --2026#0 --2025#0 -6306 -12879 -14795#0 -14795#1 -1997#0 -1998#0"/>
    </vehicle>
    <vehicle id="18" type="passenger" depart="18.00">
        <route edges="-5342#1 -5342#2 -5342#3 -5342#4 -5342#5 -5342#6 -5342#7 -5342#8 -5654#5 -5654#6 -2634#0 -2634#1 --5269#2 --5269#1 --5269#0 --5125#2 --5125#1 --5125#0 --8856#1 --8856#0 --5270#1 --5270#0 --1621 --1620#1 --1620#0 -12998#1 -12998#2 -12998#3 --1619#1 --1619#0 -6827#3 -6827#4 -6827#5 -3723 -6828#2 -6828#3 -6828#0 -3737 -12811 -9251 -4811 -15551 -12999#5 -12999#0 -12999#1 -985#0 -985#1 -985#2 -985#3 -985#4 -985#5 -5130 -12943#2 -983 -5131 --7175 --14593 --981 -8684#0 -8684#1 -8684#2 --15184 -15803 -15185#5 -15185#6 -15804 --15187 --15186#3 --15186#2 --15186#1 --15186#0 --17355 --15897#3 --15897#2 --15897#1 --15897#0 --5903#1 --5903#0 -13267 -13266 -13265 -13264 -7158 -14083 -10740#0 -10740#1 -7159 -16786 -14084 -1382 -14085#0 -14085#1 -13841#0 -13841#1 -13841#2 -13841#3 -6488#0 -6488#1 -10090 -13262 -15778 -971 -9453#0 -9453#1 -9928#0 -9928#1 -9928#2 -12930 -11540 -14596 -17358 -13112 -13111 -16791 -926 -11539 --15779 -15781 -15957 -15784 -10075 -12161 -12162 -15270#1 -12158 -10077 -10076 -15274 --7226 --7227 --14131 -7228#5 -7228#0 -10531 -10532 -12250#0 -12250#1 -7784#0 -7784#1 --7248 --13506 --4646 --4098#1 --4098#0 --11428 --7244 -1000 -4167 -10109 -12482 --10110 --1932 --10111 --7799#4 --7799#3 --7799#2 --7799#1 --7799#0 -6374 -11425#0 -11425#1 -11425#2 -11425#3 -10113 -6375 -10112#0 -10112#1 -10112#2 -10112#3 -11435#0 -11435#1 -11435#2 -11435#3 -11435#4 -11435#5 -9464#0 -9464#1 -9463#0 -9463#1 -9463#2 -16299#2 -16299#3 -16299#0 --9293#3 --9293#2 --9293#1 --9293#0 --9295#1 --9295#0 --9294#8 --9294#7 --9294#6 --9294#5 --9294#4 --9294#3 --9294#2 --9294#1 --9294#0 --9297#1 --9297#0 --1830 -11467 --1831 --8880 --11465 --8879#9 --8879#8 --8879#7 --8879#6 --8879#5 --8879#4 --8879#3 --8879#2 --8879#1 --8879#0 --4120 -1481#0 -1481#1 -1482#4 --8064 --11459 --8063 --9657 -13663#2 -13663#3 -13664 -13662#0 -13662#1 --8371#2 --8371#1 --8371#0 -8444#4 -8444#0 -8444#1 -8444#2 --9439#1 -11420#0 -11420#1 -11420#2 -11420#3 -12874#2 -12876 -10589 -12875#0 -12875#1 -12875#2 -4123 -4122#0 -4122#1 -4122#2 -13086#1 -2645 -13084 -2648#0 -2648#1 -2648#2 -10121 -8863 -870 -14960 -4437 -13991 -868 -869 -867 -13081 -2789#0 --2914 -8531 --9455#1 -2915"/>
    </vehicle>
    <vehicle id="19" type="passenger" depart="19.00">
        <route edges="-6090#0 -6090#1 --4211#1 --4958 --3106#0 -4206 -16467 -4207 -11285#2 -11285#0 -11284 -13294 -13297#1 -13297#2 -13297#3 -13296 --993#6 --993#5 --993#4 --993#3 --993#2 --993#1 --993#0 --3757 -6831 --3740#2 --3740#1 --3740#0 -6829 -6830 --3739#3 --3739#2 --3739#1 --3739#0 --11851 --992 -6828#0 -3737 -12811 -9251 -4811 -15551 -12999#5 -12999#0 -12999#1 -985#0 -985#1 -985#2 -985#3 -985#4 -985#5 -5130 -12943#2 -983 -5131 --7175 --14593 --981 -8684#0 -8684#1 -8684#2 --15184 -15803 -15185#5 -15185#6 -15804 --15187 --15186#3 --15186#2 --15186#1 --15186#0 --17355 --15897#3 --15897#2 --15897#1 --15897#0 --5903#1 --5903#0 -13267 -13266 -13265 -13264 -7158 -14083 -10740#0 -10740#1 -7159 -16786 -14084 -6738 -10732 -10733#0 -10733#1 -10733#2 -1379#1 -1379#2 -1380 -13629 -16247 -16248 -16245 -7295 -9259#0 -9259#1 -8986 -8987#0 -8987#1 -7866#0 -7866#1 -7866#2 -7866#3 -6865 -7033 -2226 -9418#0 -9418#1 -9418#2 -5720 -7779#0 -7779#1 -7779#2 -7779#3 -7779#4 -16061 -16062 -6763 -16063 -2180#0 -2180#1 --2229#1 --2229#0 --9814#1 --9814#0 -9815#0 -9815#1 -9815#2 -9815#3 --4109#3 --4109#2 --4109#1 --4109#0 -16152#2 --11527#1 --11527#0 --11508 --11505#6 --11505#5 --11505#4 -2261#0 -2262#0"/>
    </vehicle>
    <vehicle id="20" type="passenger" depart="20.00">
        <route edges="-2769#0 -2769#1 --1654#2 --1654#1 --1654#0 -16497#1 -16497#2 -6820#1 -4616 --1524#3 -2961#0 -2961#1 -2961#2 --2993#1 --2993#0 -9813#0 -9813#1 -9813#2 -9813#3 -9813#4 -9813#5 -9813#6 --1645 --12437#3 --12437#2 --12437#1 --12437#0 -12438 --11123#5 --11123#4 --11123#3 --11123#2 --11123#1 -1436 -6918#2 -5766 -5765 -6919 -12968#7 -12968#8 -12968#9 -7879 -7783 -7079 -10819 -16491 -7077 -7875 -7876 -7116#0 -7116#1 -14572 -14571 -4432 -9395 -14136 -14135 -14570 -17391 -7117#0 -7117#1 -11018 -11020#0 -11020#1 -10818 -11019 -7132 -10586#0 -10586#1 -7139 -7217 -12965 -12964 -12963 -7214#0 -7214#1 -7213#0 -7213#1 -7213#2 -7213#3 -12241 -7223 -8720 -7225 -7228#4 -7228#5 -7228#0 -7228#1 -7228#2 -11987 -914 -9881 -2658 --17412 -976 -3178 -4657 -8928 -843#2 -843#3 -843#4 -7263#1 -7263#2 -7263#3 -7263#4 -7263#5 -10807 -7391 -9077 -16110 -16111 -13348 --9417#1 --9417#0 --11991 --9431#1 --9431#0 --8446 --10475 --13837#1 --13837#0 --6969 --7381 --14715 -7393 --10932 --7394 -15645 -1124#0 -1124#1 -1124#2 -1124#3 -1391#4 -1391#5 -1149 -16155 -16156 -16157 -16153 -1003 -13543 --13543"/>
    </vehicle>
    <vehicle id="21" type="passenger" depart="21.00">